/*---------------------------------------------------------------------------*\
| =========                 |                                                 |
| \\      /  F ield         | OpenFOAM: The Open Source CFD Toolbox           |
|  \\    /   O peration     | Version:  2.3.1                                 |
|   \\  /    A nd           | Web:      www.OpenFOAM.org                      |
|    \\/     M anipulation  |                                                 |
\*---------------------------------------------------------------------------*/
Build  : 2.3.1-262087cdf8db
Exec   : pimpleFoam
Date   : Oct 10 2017
Time   : 23:28:07
Host   : "e-r07megbm4"
PID    : 7983
Case   : /home/magid/OpenFOAM/magid-2.3.1/Method/EBRSM/my395_Channel_v136meshryanchemes1mymeshRANSonlyRefEBRSM
nProcs : 1
sigFpe : Enabling floating point exception trapping (FOAM_SIGFPE).
fileModificationChecking : Monitoring run-time modified files using timeStampMaster
allowSystemOperations : Allowing user-supplied system call operations

// * * * * * * * * * * * * * * * * * * * * * * * * * * * * * * * * * * * * * //
Create time

--> FOAM Warning : 
    From function dlOpen(const fileName&, const bool)
    in file POSIX.C at line 1179
    dlopen error : /home/mbgxaa8/OpenFOAM/mbgxaa8-2.3.1/platforms/linux64GccDPOpt/lib/libRASModelsforHybrid.so: cannot open shared object file: No such file or directory
--> FOAM Warning : 
    From function dlLibraryTable::open(const fileName&, const bool)
    in file db/dynamicLibrary/dlLibraryTable/dlLibraryTable.C at line 99
    could not load "/home/mbgxaa8/OpenFOAM/mbgxaa8-2.3.1/platforms/linux64GccDPOpt/lib/libRASModelsforHybrid.so"
Create mesh for time = 0

Reading field p

Reading field U

Reading/calculating face flux field phi

Selecting incompressible transport model Newtonian
Selecting turbulence model type RASModel
Selecting RAS turbulence model RefEBRSM
RefEBRSMCoeffs
{
    CmuKE           0.09;
    Clrr1           1.8;
    Clrr2           0.6;
    C1              1.44;
    C2              1.83;
    Cmu             0.07;
    sigmaEps        1.15;
    sigmaK          1;
    CL              0.133;
    CEta            80;
    yStarLim        5;
    implicitDiv     true;
    SSG             true;
    Cg1             3.4;
    Cg1s            1.8;
    Cg2             0;
    Cg3             0.8;
    Cg3s            1.3;
    Cg4             1.25;
    Cg5             0.4;
    crossTurbDiffusion false;
    CMu             0.21;
    CSEps           0.1826;
    CSR             0.21;
    SGDHEps         false;
    SGDHR           false;
    A1p             0.065;
}

Creating finite volume options from "system/fvOptions"

Selecting finite volume options model type pressureGradientExplicitSource
    Source: momentumSource
    - applying source for all time
    - selecting all cells
    - selected 6399 cell(s) with volume 39.4784

    Initial pressure gradient = 0


PIMPLE: Operating solver in PISO mode


Starting time loop

fieldAverage fieldAverageRANS:
    Starting averaging at time 0

Courant Number mean: 0.00191225 max: 0.00191225
deltaT = 0.011976
Time = 0.011976

smoothSolver:  Solving for Ux, Initial residual = 1, Final residual = 9.92124e-06, No Iterations 28
smoothSolver:  Solving for Uy, Initial residual = 1, Final residual = 9.92124e-06, No Iterations 28
smoothSolver:  Solving for Uz, Initial residual = 0.637539, Final residual = 7.84246e-06, No Iterations 15
Pressure gradient source: uncorrected Ubar = 0.133463, pressure gradient = 0.00328516
GAMGPCG:  Solving for p, Initial residual = 1, Final residual = 0.000451595, No Iterations 1
GAMGPCG:  Solving for p, Initial residual = 0.000225031, Final residual = 9.27987e-08, No Iterations 3
GAMGPCG:  Solving for p, Initial residual = 9.24602e-08, Final residual = 9.24602e-08, No Iterations 0
time step continuity errors : sum local = 5.04983e-13, global = -6.5369e-22, cumulative = -6.5369e-22
Pressure gradient source: uncorrected Ubar = 0.133464, pressure gradient = 0.00316985
GAMGPCG:  Solving for p, Initial residual = 0.316626, Final residual = 0.000161075, No Iterations 1
GAMGPCG:  Solving for p, Initial residual = 0.000231131, Final residual = 1.24959e-06, No Iterations 2
GAMGPCG:  Solving for p, Initial residual = 1.25514e-06, Final residual = 4.65013e-17, No Iterations 14
time step continuity errors : sum local = 2.73086e-19, global = -4.29338e-20, cumulative = -4.35875e-20
Pressure gradient source: uncorrected Ubar = 0.133464, pressure gradient = 0.00314871
smoothSolver:  Solving for epsilon, Initial residual = 0.118246, Final residual = 8.66491e-06, No Iterations 18
smoothSolver:  Solving for Rxx, Initial residual = 1, Final residual = 8.06198e-06, No Iterations 43
smoothSolver:  Solving for Rxy, Initial residual = 1, Final residual = 7.63843e-06, No Iterations 44
smoothSolver:  Solving for Rxz, Initial residual = 0.999975, Final residual = 9.03118e-06, No Iterations 37
smoothSolver:  Solving for Ryy, Initial residual = 1, Final residual = 8.06238e-06, No Iterations 43
smoothSolver:  Solving for Ryz, Initial residual = 0.999998, Final residual = 7.963e-06, No Iterations 40
smoothSolver:  Solving for Rzz, Initial residual = 1, Final residual = 8.06198e-06, No Iterations 43
smoothSolver:  Solving for alpha, Initial residual = 1, Final residual = 9.8854e-06, No Iterations 488
ExecutionTime = 0.21 s  ClockTime = 0 s

Courant Number mean: 0.0022895 max: 0.00229032
deltaT = 0.0143023
Time = 0.0262784

smoothSolver:  Solving for Ux, Initial residual = 0.0760352, Final residual = 4.73207e-06, No Iterations 3
smoothSolver:  Solving for Uy, Initial residual = 0.763786, Final residual = 7.86618e-07, No Iterations 4
smoothSolver:  Solving for Uz, Initial residual = 0.327598, Final residual = 2.78441e-06, No Iterations 4
Pressure gradient source: uncorrected Ubar = 0.133504, pressure gradient = 0.00265574
GAMGPCG:  Solving for p, Initial residual = 0.22969, Final residual = 1.04969e-05, No Iterations 1
GAMGPCG:  Solving for p, Initial residual = 1.30087e-05, Final residual = 1.69764e-07, No Iterations 2
GAMGPCG:  Solving for p, Initial residual = 1.70183e-07, Final residual = 1.70183e-07, No Iterations 0
time step continuity errors : sum local = 1.69203e-12, global = -2.4132e-21, cumulative = -4.60007e-20
Pressure gradient source: uncorrected Ubar = 0.133504, pressure gradient = 0.00266894
GAMGPCG:  Solving for p, Initial residual = 0.0142789, Final residual = 1.46934e-06, No Iterations 1
GAMGPCG:  Solving for p, Initial residual = 1.46103e-06, Final residual = 5.31749e-07, No Iterations 1
GAMGPCG:  Solving for p, Initial residual = 5.31694e-07, Final residual = 5.4657e-17, No Iterations 14
time step continuity errors : sum local = 2.87279e-19, global = -3.94014e-21, cumulative = -4.99408e-20
Pressure gradient source: uncorrected Ubar = 0.133504, pressure gradient = 0.00266975
smoothSolver:  Solving for epsilon, Initial residual = 0.00984705, Final residual = 5.59956e-07, No Iterations 3
smoothSolver:  Solving for Rxx, Initial residual = 0.371396, Final residual = 1.01919e-06, No Iterations 4
smoothSolver:  Solving for Rxy, Initial residual = 0.378451, Final residual = 1.02919e-06, No Iterations 4
smoothSolver:  Solving for Rxz, Initial residual = 0.999985, Final residual = 7.82003e-06, No Iterations 4
smoothSolver:  Solving for Ryy, Initial residual = 0.681791, Final residual = 2.24785e-06, No Iterations 4
smoothSolver:  Solving for Ryz, Initial residual = 0.999845, Final residual = 8.14536e-06, No Iterations 4
smoothSolver:  Solving for Rzz, Initial residual = 0.33265, Final residual = 9.59321e-07, No Iterations 4
smoothSolver:  Solving for alpha, Initial residual = 0.00427948, Final residual = 9.84473e-06, No Iterations 217
ExecutionTime = 0.31 s  ClockTime = 1 s

Courant Number mean: 0.00273403 max: 0.00273603
deltaT = 0.0170148
Time = 0.0432932

smoothSolver:  Solving for Ux, Initial residual = 0.0376448, Final residual = 3.35388e-06, No Iterations 3
smoothSolver:  Solving for Uy, Initial residual = 0.509628, Final residual = 1.09692e-06, No Iterations 4
smoothSolver:  Solving for Uz, Initial residual = 0.445812, Final residual = 7.97099e-06, No Iterations 4
Pressure gradient source: uncorrected Ubar = 0.133505, pressure gradient = 0.00216223
GAMGPCG:  Solving for p, Initial residual = 0.495641, Final residual = 1.35015e-05, No Iterations 1
GAMGPCG:  Solving for p, Initial residual = 1.40577e-05, Final residual = 1.49319e-07, No Iterations 2
GAMGPCG:  Solving for p, Initial residual = 1.49057e-07, Final residual = 1.49057e-07, No Iterations 0
time step continuity errors : sum local = 2.15537e-12, global = 9.31818e-20, cumulative = 4.32409e-20
Pressure gradient source: uncorrected Ubar = 0.133505, pressure gradient = 0.00217768
GAMGPCG:  Solving for p, Initial residual = 0.0184918, Final residual = 8.02435e-07, No Iterations 1
GAMGPCG:  Solving for p, Initial residual = 8.02133e-07, Final residual = 8.02133e-07, No Iterations 0
GAMGPCG:  Solving for p, Initial residual = 8.02133e-07, Final residual = 2.39098e-17, No Iterations 12
time step continuity errors : sum local = 3.85182e-19, global = -6.51741e-20, cumulative = -2.19332e-20
Pressure gradient source: uncorrected Ubar = 0.133505, pressure gradient = 0.00217865
smoothSolver:  Solving for epsilon, Initial residual = 0.00240642, Final residual = 3.35544e-06, No Iterations 2
smoothSolver:  Solving for Rxx, Initial residual = 0.057553, Final residual = 2.312e-06, No Iterations 3
smoothSolver:  Solving for Rxy, Initial residual = 0.777285, Final residual = 1.0572e-06, No Iterations 4
smoothSolver:  Solving for Rxz, Initial residual = 0.846895, Final residual = 3.4798e-06, No Iterations 4
smoothSolver:  Solving for Ryy, Initial residual = 0.0321068, Final residual = 2.3591e-06, No Iterations 3
smoothSolver:  Solving for Ryz, Initial residual = 0.914795, Final residual = 7.99215e-06, No Iterations 4
smoothSolver:  Solving for Rzz, Initial residual = 0.07126, Final residual = 2.82442e-06, No Iterations 3
smoothSolver:  Solving for alpha, Initial residual = 0.0012511, Final residual = 9.88774e-06, No Iterations 172
ExecutionTime = 0.41 s  ClockTime = 1 s

Courant Number mean: 0.00325262 max: 0.00325623
deltaT = 0.0203824
Time = 0.0636756

smoothSolver:  Solving for Ux, Initial residual = 0.024248, Final residual = 3.19427e-06, No Iterations 3
smoothSolver:  Solving for Uy, Initial residual = 0.459705, Final residual = 2.17484e-06, No Iterations 4
smoothSolver:  Solving for Uz, Initial residual = 0.43654, Final residual = 1.10534e-06, No Iterations 5
Pressure gradient source: uncorrected Ubar = 0.133506, pressure gradient = 0.00171192
GAMGPCG:  Solving for p, Initial residual = 0.395768, Final residual = 9.86165e-06, No Iterations 1
GAMGPCG:  Solving for p, Initial residual = 1.21975e-05, Final residual = 5.10265e-07, No Iterations 2
GAMGPCG:  Solving for p, Initial residual = 5.10678e-07, Final residual = 5.10678e-07, No Iterations 0
time step continuity errors : sum local = 6.75197e-12, global = -9.99528e-21, cumulative = -3.19284e-20
Pressure gradient source: uncorrected Ubar = 0.133506, pressure gradient = 0.00172825
GAMGPCG:  Solving for p, Initial residual = 0.0172914, Final residual = 8.67751e-07, No Iterations 1
GAMGPCG:  Solving for p, Initial residual = 8.67537e-07, Final residual = 8.67537e-07, No Iterations 0
GAMGPCG:  Solving for p, Initial residual = 8.67537e-07, Final residual = 1.32616e-17, No Iterations 16
time step continuity errors : sum local = 4.09332e-19, global = -8.85125e-21, cumulative = -4.07797e-20
Pressure gradient source: uncorrected Ubar = 0.133506, pressure gradient = 0.00172933
smoothSolver:  Solving for epsilon, Initial residual = 0.00131621, Final residual = 2.24909e-06, No Iterations 2
smoothSolver:  Solving for Rxx, Initial residual = 0.28344, Final residual = 8.07969e-07, No Iterations 4
smoothSolver:  Solving for Rxy, Initial residual = 0.90967, Final residual = 8.39631e-07, No Iterations 4
smoothSolver:  Solving for Rxz, Initial residual = 0.333126, Final residual = 2.9071e-06, No Iterations 4
smoothSolver:  Solving for Ryy, Initial residual = 0.0123686, Final residual = 2.07187e-06, No Iterations 3
smoothSolver:  Solving for Ryz, Initial residual = 0.663369, Final residual = 2.03976e-06, No Iterations 5
smoothSolver:  Solving for Rzz, Initial residual = 0.434324, Final residual = 1.38459e-06, No Iterations 4
smoothSolver:  Solving for alpha, Initial residual = 0.00171827, Final residual = 9.90101e-06, No Iterations 130
ExecutionTime = 0.5 s  ClockTime = 1 s

Courant Number mean: 0.00389661 max: 0.00390225
deltaT = 0.0242041
Time = 0.0878796

smoothSolver:  Solving for Ux, Initial residual = 0.0172103, Final residual = 3.2767e-06, No Iterations 3
smoothSolver:  Solving for Uy, Initial residual = 0.519575, Final residual = 4.58096e-06, No Iterations 4
smoothSolver:  Solving for Uz, Initial residual = 0.387645, Final residual = 1.45316e-06, No Iterations 5
Pressure gradient source: uncorrected Ubar = 0.133506, pressure gradient = 0.00135398
GAMGPCG:  Solving for p, Initial residual = 0.439204, Final residual = 9.14743e-06, No Iterations 1
GAMGPCG:  Solving for p, Initial residual = 1.07903e-05, Final residual = 2.94949e-07, No Iterations 2
GAMGPCG:  Solving for p, Initial residual = 2.95158e-07, Final residual = 2.95158e-07, No Iterations 0
time step continuity errors : sum local = 4.15527e-12, global = 1.06688e-20, cumulative = -3.01109e-20
Pressure gradient source: uncorrected Ubar = 0.133505, pressure gradient = 0.00136903
GAMGPCG:  Solving for p, Initial residual = 0.0109745, Final residual = 1.15923e-06, No Iterations 1
GAMGPCG:  Solving for p, Initial residual = 1.16384e-06, Final residual = 4.13192e-07, No Iterations 1
GAMGPCG:  Solving for p, Initial residual = 4.13156e-07, Final residual = 1.25126e-17, No Iterations 12
time step continuity errors : sum local = 5.58171e-19, global = -1.00838e-19, cumulative = -1.30949e-19
Pressure gradient source: uncorrected Ubar = 0.133505, pressure gradient = 0.00137006
smoothSolver:  Solving for epsilon, Initial residual = 0.00324709, Final residual = 7.23973e-06, No Iterations 2
smoothSolver:  Solving for Rxx, Initial residual = 0.0663361, Final residual = 2.60523e-06, No Iterations 3
smoothSolver:  Solving for Rxy, Initial residual = 0.988814, Final residual = 6.62491e-06, No Iterations 3
smoothSolver:  Solving for Rxz, Initial residual = 0.379992, Final residual = 4.99145e-06, No Iterations 4
smoothSolver:  Solving for Ryy, Initial residual = 0.0072633, Final residual = 2.56716e-06, No Iterations 3
smoothSolver:  Solving for Ryz, Initial residual = 0.547204, Final residual = 3.24749e-06, No Iterations 5
smoothSolver:  Solving for Rzz, Initial residual = 0.0738698, Final residual = 2.63787e-06, No Iterations 3
smoothSolver:  Solving for alpha, Initial residual = 0.00321804, Final residual = 9.6899e-06, No Iterations 56
ExecutionTime = 0.58 s  ClockTime = 1 s

Courant Number mean: 0.00462757 max: 0.00463571
deltaT = 0.0289715
Time = 0.116851

smoothSolver:  Solving for Ux, Initial residual = 0.0132192, Final residual = 3.70787e-06, No Iterations 3
smoothSolver:  Solving for Uy, Initial residual = 0.472373, Final residual = 8.94151e-06, No Iterations 4
smoothSolver:  Solving for Uz, Initial residual = 0.306096, Final residual = 2.15505e-06, No Iterations 5
Pressure gradient source: uncorrected Ubar = 0.133505, pressure gradient = 0.00107655
GAMGPCG:  Solving for p, Initial residual = 0.358571, Final residual = 1.41611e-05, No Iterations 1
GAMGPCG:  Solving for p, Initial residual = 1.53515e-05, Final residual = 3.31072e-07, No Iterations 2
GAMGPCG:  Solving for p, Initial residual = 3.30855e-07, Final residual = 3.30855e-07, No Iterations 0
time step continuity errors : sum local = 4.61203e-12, global = -1.53429e-19, cumulative = -2.84378e-19
Pressure gradient source: uncorrected Ubar = 0.133505, pressure gradient = 0.0010901
GAMGPCG:  Solving for p, Initial residual = 0.0127603, Final residual = 8.58337e-07, No Iterations 1
GAMGPCG:  Solving for p, Initial residual = 8.62103e-07, Final residual = 8.62103e-07, No Iterations 0
GAMGPCG:  Solving for p, Initial residual = 8.62103e-07, Final residual = 1.92036e-17, No Iterations 11
time step continuity errors : sum local = 7.10043e-19, global = -1.56097e-19, cumulative = -4.40474e-19
Pressure gradient source: uncorrected Ubar = 0.133505, pressure gradient = 0.00109107
smoothSolver:  Solving for epsilon, Initial residual = 0.00486029, Final residual = 8.24237e-07, No Iterations 3
smoothSolver:  Solving for Rxx, Initial residual = 0.0418045, Final residual = 1.23719e-06, No Iterations 3
smoothSolver:  Solving for Rxy, Initial residual = 0.999413, Final residual = 5.90316e-07, No Iterations 3
smoothSolver:  Solving for Rxz, Initial residual = 0.655023, Final residual = 2.01558e-06, No Iterations 5
smoothSolver:  Solving for Ryy, Initial residual = 0.00449213, Final residual = 2.98272e-06, No Iterations 3
smoothSolver:  Solving for Ryz, Initial residual = 0.849887, Final residual = 2.38806e-06, No Iterations 5
smoothSolver:  Solving for Rzz, Initial residual = 0.0233703, Final residual = 1.21888e-06, No Iterations 3
smoothSolver:  Solving for alpha, Initial residual = 0.00242501, Final residual = 9.96622e-06, No Iterations 57
ExecutionTime = 0.66 s  ClockTime = 1 s

Courant Number mean: 0.00553951 max: 0.00555123
deltaT = 0.0342391
Time = 0.15109

smoothSolver:  Solving for Ux, Initial residual = 0.0105238, Final residual = 4.14147e-06, No Iterations 3
smoothSolver:  Solving for Uy, Initial residual = 0.554266, Final residual = 2.74521e-06, No Iterations 5
smoothSolver:  Solving for Uz, Initial residual = 0.341742, Final residual = 5.11482e-06, No Iterations 5
Pressure gradient source: uncorrected Ubar = 0.133503, pressure gradient = 0.000932481
GAMGPCG:  Solving for p, Initial residual = 0.322131, Final residual = 4.29038e-05, No Iterations 1
GAMGPCG:  Solving for p, Initial residual = 4.58273e-05, Final residual = 5.6761e-07, No Iterations 2
GAMGPCG:  Solving for p, Initial residual = 5.68443e-07, Final residual = 5.68443e-07, No Iterations 0
time step continuity errors : sum local = 1.01541e-11, global = 1.32778e-19, cumulative = -3.07696e-19
Pressure gradient source: uncorrected Ubar = 0.133503, pressure gradient = 0.000940921
GAMGPCG:  Solving for p, Initial residual = 0.0122573, Final residual = 2.64308e-06, No Iterations 1
GAMGPCG:  Solving for p, Initial residual = 2.65547e-06, Final residual = 3.98612e-07, No Iterations 1
GAMGPCG:  Solving for p, Initial residual = 3.98578e-07, Final residual = 6.09339e-17, No Iterations 17
time step continuity errors : sum local = 8.10269e-19, global = 1.36475e-19, cumulative = -1.71221e-19
Pressure gradient source: uncorrected Ubar = 0.133503, pressure gradient = 0.000941533
smoothSolver:  Solving for epsilon, Initial residual = 0.00528369, Final residual = 1.32568e-06, No Iterations 3
smoothSolver:  Solving for Rxx, Initial residual = 1.90114e-08, Final residual = 1.90114e-08, No Iterations 0
smoothSolver:  Solving for Rxy, Initial residual = 1, Final residual = 2.86037e-11, No Iterations 1
smoothSolver:  Solving for Rxz, Initial residual = 0.854487, Final residual = 8.80646e-11, No Iterations 1
smoothSolver:  Solving for Ryy, Initial residual = 3.17694e-10, Final residual = 3.17694e-10, No Iterations 0
smoothSolver:  Solving for Ryz, Initial residual = 1, Final residual = 1.25129e-11, No Iterations 1
smoothSolver:  Solving for Rzz, Initial residual = 1.88616e-08, Final residual = 1.88616e-08, No Iterations 0
smoothSolver:  Solving for alpha, Initial residual = 0.00226288, Final residual = 9.93283e-06, No Iterations 60
ExecutionTime = 0.75 s  ClockTime = 1 s

Courant Number mean: 0.00654736 max: 0.00656646
deltaT = 0.0401937
Time = 0.191284

smoothSolver:  Solving for Ux, Initial residual = 0.0108126, Final residual = 6.18789e-06, No Iterations 3
smoothSolver:  Solving for Uy, Initial residual = 0.460734, Final residual = 5.4061e-06, No Iterations 5
smoothSolver:  Solving for Uz, Initial residual = 0.381953, Final residual = 9.48258e-06, No Iterations 5
Pressure gradient source: uncorrected Ubar = 0.133509, pressure gradient = 0.00057582
GAMGPCG:  Solving for p, Initial residual = 0.24463, Final residual = 0.000427885, No Iterations 1
GAMGPCG:  Solving for p, Initial residual = 0.000425094, Final residual = 3.40063e-06, No Iterations 2
GAMGPCG:  Solving for p, Initial residual = 3.3542e-06, Final residual = 2.1101e-07, No Iterations 1
time step continuity errors : sum local = 5.34174e-12, global = 1.13001e-19, cumulative = -5.82204e-20
Pressure gradient source: uncorrected Ubar = 0.133508, pressure gradient = 0.000597572
GAMGPCG:  Solving for p, Initial residual = 0.0100419, Final residual = 2.17303e-05, No Iterations 1
GAMGPCG:  Solving for p, Initial residual = 2.1786e-05, Final residual = 1.87208e-07, No Iterations 2
GAMGPCG:  Solving for p, Initial residual = 1.87401e-07, Final residual = 2.50428e-17, No Iterations 11
time step continuity errors : sum local = 9.48e-19, global = 1.06074e-19, cumulative = 4.78538e-20
Pressure gradient source: uncorrected Ubar = 0.133508, pressure gradient = 0.000599305
smoothSolver:  Solving for epsilon, Initial residual = 0.00572142, Final residual = 1.91446e-06, No Iterations 3
smoothSolver:  Solving for Rxx, Initial residual = 5.05728e-07, Final residual = 5.05728e-07, No Iterations 0
smoothSolver:  Solving for Rxy, Initial residual = 1, Final residual = 1.92995e-11, No Iterations 1
smoothSolver:  Solving for Rxz, Initial residual = 0.990451, Final residual = 3.66423e-11, No Iterations 1
smoothSolver:  Solving for Ryy, Initial residual = 2.77003e-10, Final residual = 2.77003e-10, No Iterations 0
smoothSolver:  Solving for Ryz, Initial residual = 1, Final residual = 1.18066e-11, No Iterations 1
smoothSolver:  Solving for Rzz, Initial residual = 5.05082e-07, Final residual = 5.05082e-07, No Iterations 0
smoothSolver:  Solving for alpha, Initial residual = 0.00102527, Final residual = 9.8126e-06, No Iterations 96
ExecutionTime = 0.85 s  ClockTime = 1 s

Courant Number mean: 0.00768903 max: 0.0077427
deltaT = 0.0475978
Time = 0.238882

smoothSolver:  Solving for Ux, Initial residual = 0.0159648, Final residual = 1.18282e-06, No Iterations 4
smoothSolver:  Solving for Uy, Initial residual = 0.415081, Final residual = 1.8136e-06, No Iterations 6
smoothSolver:  Solving for Uz, Initial residual = 0.408532, Final residual = 2.82736e-06, No Iterations 6
Pressure gradient source: uncorrected Ubar = 0.13349, pressure gradient = 0.000961129
GAMGPCG:  Solving for p, Initial residual = 0.243178, Final residual = 0.00217635, No Iterations 1
GAMGPCG:  Solving for p, Initial residual = 0.00205531, Final residual = 1.16627e-06, No Iterations 3
GAMGPCG:  Solving for p, Initial residual = 1.14895e-06, Final residual = 3.05171e-07, No Iterations 1
time step continuity errors : sum local = 1.08532e-11, global = 8.82655e-20, cumulative = 1.36119e-19
Pressure gradient source: uncorrected Ubar = 0.13349, pressure gradient = 0.000937352
GAMGPCG:  Solving for p, Initial residual = 0.0196431, Final residual = 8.84113e-05, No Iterations 1
GAMGPCG:  Solving for p, Initial residual = 8.89306e-05, Final residual = 4.25122e-08, No Iterations 3
GAMGPCG:  Solving for p, Initial residual = 4.25707e-08, Final residual = 7.53344e-17, No Iterations 10
time step continuity errors : sum local = 1.32923e-18, global = -1.30798e-19, cumulative = 5.32089e-21
Pressure gradient source: uncorrected Ubar = 0.13349, pressure gradient = 0.00093535
smoothSolver:  Solving for epsilon, Initial residual = 0.0448081, Final residual = 2.07238e-06, No Iterations 4
smoothSolver:  Solving for Rxx, Initial residual = 0.000165725, Final residual = 1.2716e-12, No Iterations 1
smoothSolver:  Solving for Rxy, Initial residual = 1, Final residual = 1.77366e-11, No Iterations 1
smoothSolver:  Solving for Rxz, Initial residual = 0.998354, Final residual = 1.89636e-11, No Iterations 1
smoothSolver:  Solving for Ryy, Initial residual = 3.37595e-10, Final residual = 3.37595e-10, No Iterations 0
smoothSolver:  Solving for Ryz, Initial residual = 1, Final residual = 1.25142e-11, No Iterations 1
smoothSolver:  Solving for Rzz, Initial residual = 0.00016573, Final residual = 1.16201e-12, No Iterations 1
smoothSolver:  Solving for alpha, Initial residual = 0.00522608, Final residual = 9.9227e-06, No Iterations 170
ExecutionTime = 0.95 s  ClockTime = 1 s

Courant Number mean: 0.00911774 max: 0.00940538
deltaT = 0.0568103
Time = 0.295692

smoothSolver:  Solving for Ux, Initial residual = 0.0831075, Final residual = 6.1786e-06, No Iterations 5
smoothSolver:  Solving for Uy, Initial residual = 0.439688, Final residual = 4.42531e-06, No Iterations 6
smoothSolver:  Solving for Uz, Initial residual = 0.427913, Final residual = 5.2084e-06, No Iterations 6
Pressure gradient source: uncorrected Ubar = 0.133574, pressure gradient = -0.00125868
GAMGPCG:  Solving for p, Initial residual = 0.5203, Final residual = 0.00348765, No Iterations 2
GAMGPCG:  Solving for p, Initial residual = 0.00249471, Final residual = 1.72049e-06, No Iterations 3
GAMGPCG:  Solving for p, Initial residual = 1.72247e-06, Final residual = 1.79489e-07, No Iterations 1
time step continuity errors : sum local = 1.87528e-11, global = -9.40971e-21, cumulative = -4.08882e-21
Pressure gradient source: uncorrected Ubar = 0.133568, pressure gradient = -0.00109426
GAMGPCG:  Solving for p, Initial residual = 0.042565, Final residual = 0.000183603, No Iterations 1
GAMGPCG:  Solving for p, Initial residual = 0.00018478, Final residual = 3.44509e-07, No Iterations 3
GAMGPCG:  Solving for p, Initial residual = 3.46139e-07, Final residual = 5.98922e-17, No Iterations 11
time step continuity errors : sum local = 3.0036e-18, global = 2.58708e-19, cumulative = 2.54619e-19
Pressure gradient source: uncorrected Ubar = 0.133568, pressure gradient = -0.00107979
smoothSolver:  Solving for epsilon, Initial residual = 0.723671, Final residual = 4.66813e-06, No Iterations 5
smoothSolver:  Solving for Rxx, Initial residual = 0.0664693, Final residual = 5.0636e-06, No Iterations 1
smoothSolver:  Solving for Rxy, Initial residual = 0.999999, Final residual = 8.10102e-09, No Iterations 2
smoothSolver:  Solving for Rxz, Initial residual = 0.998191, Final residual = 7.74768e-06, No Iterations 1
smoothSolver:  Solving for Ryy, Initial residual = 2.18634e-05, Final residual = 1.16365e-06, No Iterations 1
smoothSolver:  Solving for Ryz, Initial residual = 0.99999, Final residual = 7.59531e-07, No Iterations 2
smoothSolver:  Solving for Rzz, Initial residual = 0.0642367, Final residual = 1.61144e-06, No Iterations 1
smoothSolver:  Solving for alpha, Initial residual = 0.0934334, Final residual = 9.95934e-06, No Iterations 260
ExecutionTime = 1.06 s  ClockTime = 1 s

Courant Number mean: 0.0109515 max: 0.0224506
deltaT = 0.0655503
Time = 0.361242

smoothSolver:  Solving for Ux, Initial residual = 0.238297, Final residual = 5.86246e-06, No Iterations 5
smoothSolver:  Solving for Uy, Initial residual = 0.412306, Final residual = 6.12805e-06, No Iterations 6
smoothSolver:  Solving for Uz, Initial residual = 0.390431, Final residual = 7.16936e-06, No Iterations 6
Pressure gradient source: uncorrected Ubar = 0.133043, pressure gradient = 0.0107196
GAMGPCG:  Solving for p, Initial residual = 0.609961, Final residual = 0.00370189, No Iterations 2
GAMGPCG:  Solving for p, Initial residual = 0.00226537, Final residual = 1.31013e-06, No Iterations 3
GAMGPCG:  Solving for p, Initial residual = 1.31109e-06, Final residual = 1.08553e-07, No Iterations 1
time step continuity errors : sum local = 4.53156e-11, global = -3.84051e-19, cumulative = -1.29432e-19
Pressure gradient source: uncorrected Ubar = 0.133081, pressure gradient = 0.00974638
GAMGPCG:  Solving for p, Initial residual = 0.0754123, Final residual = 0.000327423, No Iterations 1
GAMGPCG:  Solving for p, Initial residual = 0.000331117, Final residual = 2.36507e-06, No Iterations 2
GAMGPCG:  Solving for p, Initial residual = 2.39623e-06, Final residual = 7.65035e-17, No Iterations 11
time step continuity errors : sum local = 1.87587e-17, global = 4.31878e-19, cumulative = 3.02446e-19
Pressure gradient source: uncorrected Ubar = 0.133084, pressure gradient = 0.009662
smoothSolver:  Solving for epsilon, Initial residual = 0.631602, Final residual = 1.50765e-06, No Iterations 5
smoothSolver:  Solving for Rxx, Initial residual = 0.593489, Final residual = 1.3672e-11, No Iterations 1
smoothSolver:  Solving for Rxy, Initial residual = 1, Final residual = 4.00443e-13, No Iterations 1
smoothSolver:  Solving for Rxz, Initial residual = 0.835071, Final residual = 4.00375e-13, No Iterations 1
smoothSolver:  Solving for Ryy, Initial residual = 1.36365e-06, Final residual = 1.36365e-06, No Iterations 0
smoothSolver:  Solving for Ryz, Initial residual = 1, Final residual = 1.20965e-12, No Iterations 1
smoothSolver:  Solving for Rzz, Initial residual = 0.804778, Final residual = 2.52085e-13, No Iterations 1
smoothSolver:  Solving for alpha, Initial residual = 0.173787, Final residual = 9.79932e-06, No Iterations 228
ExecutionTime = 1.16 s  ClockTime = 1 s

Courant Number mean: 0.0132715 max: 0.0697669
deltaT = 0.0780361
Time = 0.439278

smoothSolver:  Solving for Ux, Initial residual = 0.118483, Final residual = 9.93998e-06, No Iterations 182
smoothSolver:  Solving for Uy, Initial residual = 0.389957, Final residual = 9.8511e-06, No Iterations 189
smoothSolver:  Solving for Uz, Initial residual = 0.403246, Final residual = 9.81737e-06, No Iterations 136
Pressure gradient source: uncorrected Ubar = 0.134755, pressure gradient = -0.0181156
GAMGPCG:  Solving for p, Initial residual = 0.705933, Final residual = 0.000778473, No Iterations 2
GAMGPCG:  Solving for p, Initial residual = 0.000484657, Final residual = 7.33099e-07, No Iterations 2
GAMGPCG:  Solving for p, Initial residual = 7.33399e-07, Final residual = 7.33399e-07, No Iterations 0
time step continuity errors : sum local = 1.06757e-09, global = 1.51593e-19, cumulative = 4.54039e-19
Pressure gradient source: uncorrected Ubar = 0.134639, pressure gradient = -0.0155355
GAMGPCG:  Solving for p, Initial residual = 0.105046, Final residual = 0.000469158, No Iterations 1
GAMGPCG:  Solving for p, Initial residual = 0.000484814, Final residual = 3.79056e-06, No Iterations 2
GAMGPCG:  Solving for p, Initial residual = 3.79192e-06, Final residual = 5.10204e-17, No Iterations 11
time step continuity errors : sum local = 2.95936e-17, global = 9.13333e-19, cumulative = 1.36737e-18
Pressure gradient source: uncorrected Ubar = 0.134628, pressure gradient = -0.0153078
smoothSolver:  Solving for epsilon, Initial residual = 0.829354, Final residual = 1.42801e-06, No Iterations 5
smoothSolver:  Solving for Rxx, Initial residual = 0.2403, Final residual = 8.91189e-13, No Iterations 1
smoothSolver:  Solving for Rxy, Initial residual = 1, Final residual = 7.78539e-15, No Iterations 1
smoothSolver:  Solving for Rxz, Initial residual = 0.72759, Final residual = 1.06399e-14, No Iterations 1
smoothSolver:  Solving for Ryy, Initial residual = 5.1409e-06, Final residual = 5.1409e-06, No Iterations 0
smoothSolver:  Solving for Ryz, Initial residual = 0.996218, Final residual = 3.49524e-14, No Iterations 1
smoothSolver:  Solving for Rzz, Initial residual = 0.849848, Final residual = 1.27505e-14, No Iterations 1
smoothSolver:  Solving for alpha, Initial residual = 0.439166, Final residual = 9.79053e-06, No Iterations 161
ExecutionTime = 1.32 s  ClockTime = 2 s

Courant Number mean: 0.0181386 max: 0.359833
deltaT = 0.0918072
Time = 0.531086

smoothSolver:  Solving for Ux, Initial residual = 0.0889107, Final residual = 1.10961e-05, No Iterations 1000
smoothSolver:  Solving for Uy, Initial residual = 0.359848, Final residual = 9.96807e-06, No Iterations 778
smoothSolver:  Solving for Uz, Initial residual = 0.347686, Final residual = 9.99138e-06, No Iterations 800
Pressure gradient source: uncorrected Ubar = 0.131282, pressure gradient = 0.0269561
GAMGPCG:  Solving for p, Initial residual = 0.766562, Final residual = 0.00285928, No Iterations 1
GAMGPCG:  Solving for p, Initial residual = 0.00385971, Final residual = 1.26235e-05, No Iterations 2
GAMGPCG:  Solving for p, Initial residual = 1.15015e-05, Final residual = 3.48826e-07, No Iterations 2
time step continuity errors : sum local = 1.15571e-09, global = -7.30789e-19, cumulative = 6.36582e-19
Pressure gradient source: uncorrected Ubar = 0.131514, pressure gradient = 0.0225347
GAMGPCG:  Solving for p, Initial residual = 0.253889, Final residual = 0.000396034, No Iterations 1
GAMGPCG:  Solving for p, Initial residual = 0.000456733, Final residual = 2.52545e-06, No Iterations 2
GAMGPCG:  Solving for p, Initial residual = 2.56527e-06, Final residual = 5.75999e-17, No Iterations 16
time step continuity errors : sum local = 1.3994e-16, global = 1.52195e-18, cumulative = 2.15853e-18
Pressure gradient source: uncorrected Ubar = 0.131535, pressure gradient = 0.0221388
smoothSolver:  Solving for epsilon, Initial residual = 0.86116, Final residual = 1.72792e-06, No Iterations 3
smoothSolver:  Solving for Rxx, Initial residual = 0.00234053, Final residual = 6.52002e-15, No Iterations 1
smoothSolver:  Solving for Rxy, Initial residual = 1, Final residual = 1.28713e-15, No Iterations 1
smoothSolver:  Solving for Rxz, Initial residual = 0.591994, Final residual = 9.28548e-16, No Iterations 1
smoothSolver:  Solving for Ryy, Initial residual = 2.93116e-07, Final residual = 2.93116e-07, No Iterations 0
smoothSolver:  Solving for Ryz, Initial residual = 0.967634, Final residual = 5.72776e-14, No Iterations 1
smoothSolver:  Solving for Rzz, Initial residual = 0.115582, Final residual = 5.17601e-15, No Iterations 1
smoothSolver:  Solving for alpha, Initial residual = 0.246065, Final residual = 9.7045e-06, No Iterations 98
ExecutionTime = 1.7 s  ClockTime = 2 s

Courant Number mean: 0.0259473 max: 0.855825
deltaT = 0.0734457
Time = 0.604531

smoothSolver:  Solving for Ux, Initial residual = 0.254818, Final residual = 9.60516e-06, No Iterations 101
smoothSolver:  Solving for Uy, Initial residual = 0.272224, Final residual = 9.69037e-06, No Iterations 50
smoothSolver:  Solving for Uz, Initial residual = 0.275045, Final residual = 9.43519e-06, No Iterations 23
Pressure gradient source: uncorrected Ubar = 0.134786, pressure gradient = -0.00612351
GAMGPCG:  Solving for p, Initial residual = 0.791, Final residual = 0.0016837, No Iterations 1
GAMGPCG:  Solving for p, Initial residual = 0.00157194, Final residual = 3.88951e-06, No Iterations 3
GAMGPCG:  Solving for p, Initial residual = 4.11225e-06, Final residual = 1.8867e-07, No Iterations 1
time step continuity errors : sum local = 8.67153e-10, global = 7.92827e-19, cumulative = 2.95135e-18
Pressure gradient source: uncorrected Ubar = 0.134666, pressure gradient = -0.00348679
GAMGPCG:  Solving for p, Initial residual = 0.334803, Final residual = 0.000523041, No Iterations 1
GAMGPCG:  Solving for p, Initial residual = 0.000714564, Final residual = 6.89887e-06, No Iterations 2
GAMGPCG:  Solving for p, Initial residual = 6.79855e-06, Final residual = 2.01376e-17, No Iterations 18
time step continuity errors : sum local = 5.27214e-17, global = 2.29921e-19, cumulative = 3.18128e-18
Pressure gradient source: uncorrected Ubar = 0.134656, pressure gradient = -0.00327094
smoothSolver:  Solving for epsilon, Initial residual = 0.926145, Final residual = 2.59586e-06, No Iterations 2
bounding epsilon, min: -36.4239 max: 697.576 average: 1.57712
smoothSolver:  Solving for Rxx, Initial residual = 0.00196725, Final residual = 1.66236e-15, No Iterations 1
smoothSolver:  Solving for Rxy, Initial residual = 1, Final residual = 3.56656e-16, No Iterations 1
smoothSolver:  Solving for Rxz, Initial residual = 0.572484, Final residual = 8.288e-16, No Iterations 1
smoothSolver:  Solving for Ryy, Initial residual = 9.25123e-08, Final residual = 9.25123e-08, No Iterations 0
smoothSolver:  Solving for Ryz, Initial residual = 0.518329, Final residual = 1.52843e-14, No Iterations 1
smoothSolver:  Solving for Rzz, Initial residual = 0.0753641, Final residual = 1.58023e-15, No Iterations 1
smoothSolver:  Solving for alpha, Initial residual = 0.116492, Final residual = 9.87655e-06, No Iterations 139
ExecutionTime = 1.83 s  ClockTime = 2 s

Courant Number mean: 0.0229461 max: 0.60719
deltaT = 0.077526
Time = 0.682057

smoothSolver:  Solving for Ux, Initial residual = 0.206454, Final residual = 8.52966e-06, No Iterations 17
smoothSolver:  Solving for Uy, Initial residual = 0.16953, Final residual = 8.30242e-06, No Iterations 12
smoothSolver:  Solving for Uz, Initial residual = 0.200321, Final residual = 7.16558e-06, No Iterations 8
Pressure gradient source: uncorrected Ubar = 0.132633, pressure gradient = 0.0156435
GAMGPCG:  Solving for p, Initial residual = 0.816752, Final residual = 0.00160737, No Iterations 1
GAMGPCG:  Solving for p, Initial residual = 0.00197086, Final residual = 1.12874e-05, No Iterations 2
GAMGPCG:  Solving for p, Initial residual = 1.0615e-05, Final residual = 3.82882e-07, No Iterations 1
time step continuity errors : sum local = 1.30068e-09, global = 3.48747e-19, cumulative = 3.53002e-18
Pressure gradient source: uncorrected Ubar = 0.132715, pressure gradient = 0.0138585
GAMGPCG:  Solving for p, Initial residual = 0.315484, Final residual = 0.000261099, No Iterations 1
GAMGPCG:  Solving for p, Initial residual = 0.000322272, Final residual = 1.534e-06, No Iterations 2
GAMGPCG:  Solving for p, Initial residual = 1.55311e-06, Final residual = 9.70285e-17, No Iterations 12
time step continuity errors : sum local = 9.30306e-17, global = -4.52743e-19, cumulative = 3.07728e-18
Pressure gradient source: uncorrected Ubar = 0.132721, pressure gradient = 0.0137171
smoothSolver:  Solving for epsilon, Initial residual = 0.424994, Final residual = 7.64301e-06, No Iterations 3
bounding epsilon, min: -408.154 max: 312.527 average: 1.54571
smoothSolver:  Solving for Rxx, Initial residual = 0.058947, Final residual = 1.68182e-14, No Iterations 1
smoothSolver:  Solving for Rxy, Initial residual = 1, Final residual = 7.28657e-16, No Iterations 1
smoothSolver:  Solving for Rxz, Initial residual = 0.987147, Final residual = 6.96522e-16, No Iterations 1
smoothSolver:  Solving for Ryy, Initial residual = 2.04244e-05, Final residual = 2.82016e-14, No Iterations 1
smoothSolver:  Solving for Ryz, Initial residual = 0.981581, Final residual = 8.20843e-14, No Iterations 1
smoothSolver:  Solving for Rzz, Initial residual = 0.827252, Final residual = 9.86174e-15, No Iterations 1
smoothSolver:  Solving for alpha, Initial residual = 0.115014, Final residual = 9.77859e-06, No Iterations 133
ExecutionTime = 1.93 s  ClockTime = 2 s

Courant Number mean: 0.0261681 max: 0.489862
deltaT = 0.0878628
Time = 0.76992

smoothSolver:  Solving for Ux, Initial residual = 0.0857083, Final residual = 9.97621e-06, No Iterations 210
smoothSolver:  Solving for Uy, Initial residual = 0.166372, Final residual = 9.88185e-06, No Iterations 151
smoothSolver:  Solving for Uz, Initial residual = 0.159421, Final residual = 9.95822e-06, No Iterations 74
Pressure gradient source: uncorrected Ubar = 0.134945, pressure gradient = -0.0147388
GAMGPCG:  Solving for p, Initial residual = 0.703291, Final residual = 0.0032158, No Iterations 1
GAMGPCG:  Solving for p, Initial residual = 0.00231056, Final residual = 1.37726e-05, No Iterations 3
GAMGPCG:  Solving for p, Initial residual = 1.43905e-05, Final residual = 5.80071e-07, No Iterations 1
time step continuity errors : sum local = 3.44007e-09, global = 2.68194e-19, cumulative = 3.34547e-18
Pressure gradient source: uncorrected Ubar = 0.134798, pressure gradient = -0.0118287
GAMGPCG:  Solving for p, Initial residual = 0.111975, Final residual = 0.00028056, No Iterations 1
GAMGPCG:  Solving for p, Initial residual = 0.000293191, Final residual = 2.86052e-06, No Iterations 2
GAMGPCG:  Solving for p, Initial residual = 2.83741e-06, Final residual = 1.72034e-17, No Iterations 13
time step continuity errors : sum local = 5.36924e-17, global = 1.1307e-18, cumulative = 4.47617e-18
Pressure gradient source: uncorrected Ubar = 0.134786, pressure gradient = -0.0115974
smoothSolver:  Solving for epsilon, Initial residual = 0.378521, Final residual = 6.72307e-06, No Iterations 3
bounding epsilon, min: -7.62627 max: 657.281 average: 1.35645
smoothSolver:  Solving for Rxx, Initial residual = 0.00296877, Final residual = 5.39451e-06, No Iterations 1
smoothSolver:  Solving for Rxy, Initial residual = 0.951988, Final residual = 2.69916e-06, No Iterations 1
smoothSolver:  Solving for Rxz, Initial residual = 0.761221, Final residual = 2.91622e-06, No Iterations 1
smoothSolver:  Solving for Ryy, Initial residual = 0.012658, Final residual = 6.10401e-06, No Iterations 1
smoothSolver:  Solving for Ryz, Initial residual = 0.176938, Final residual = 1.15589e-06, No Iterations 2
smoothSolver:  Solving for Rzz, Initial residual = 0.0422725, Final residual = 1.93339e-06, No Iterations 1
smoothSolver:  Solving for alpha, Initial residual = 0.106807, Final residual = 9.94476e-06, No Iterations 124
ExecutionTime = 2.08 s  ClockTime = 2 s

Courant Number mean: 0.0306866 max: 0.635857
deltaT = 0.0946215
Time = 0.864542

smoothSolver:  Solving for Ux, Initial residual = 0.117663, Final residual = 9.9633e-06, No Iterations 375
smoothSolver:  Solving for Uy, Initial residual = 0.100283, Final residual = 9.95769e-06, No Iterations 309
smoothSolver:  Solving for Uz, Initial residual = 0.137885, Final residual = 9.95078e-06, No Iterations 328
Pressure gradient source: uncorrected Ubar = 0.131504, pressure gradient = 0.0248437
GAMGPCG:  Solving for p, Initial residual = 0.678021, Final residual = 0.00164193, No Iterations 1
GAMGPCG:  Solving for p, Initial residual = 0.00224236, Final residual = 1.10503e-05, No Iterations 2
GAMGPCG:  Solving for p, Initial residual = 1.05729e-05, Final residual = 2.42225e-07, No Iterations 2
time step continuity errors : sum local = 1.60309e-09, global = 8.50141e-19, cumulative = 5.32631e-18
Pressure gradient source: uncorrected Ubar = 0.131721, pressure gradient = 0.0208878
GAMGPCG:  Solving for p, Initial residual = 0.199515, Final residual = 0.000333178, No Iterations 1
GAMGPCG:  Solving for p, Initial residual = 0.000384391, Final residual = 2.20426e-06, No Iterations 2
GAMGPCG:  Solving for p, Initial residual = 2.22428e-06, Final residual = 8.10163e-17, No Iterations 12
time step continuity errors : sum local = 1.97637e-16, global = 3.47046e-19, cumulative = 5.67336e-18
Pressure gradient source: uncorrected Ubar = 0.131737, pressure gradient = 0.0205866
smoothSolver:  Solving for epsilon, Initial residual = 0.58476, Final residual = 4.01763e-06, No Iterations 4
bounding epsilon, min: -0.112855 max: 15811.4 average: 5.51261
smoothSolver:  Solving for Rxx, Initial residual = 0.00885052, Final residual = 5.06344e-12, No Iterations 1
smoothSolver:  Solving for Rxy, Initial residual = 1, Final residual = 5.31e-14, No Iterations 1
smoothSolver:  Solving for Rxz, Initial residual = 1, Final residual = 2.45405e-14, No Iterations 1
smoothSolver:  Solving for Ryy, Initial residual = 1.36622e-06, Final residual = 1.36622e-06, No Iterations 0
smoothSolver:  Solving for Ryz, Initial residual = 0.491783, Final residual = 4.31183e-12, No Iterations 1
smoothSolver:  Solving for Rzz, Initial residual = 0.0830914, Final residual = 8.71454e-13, No Iterations 1
smoothSolver:  Solving for alpha, Initial residual = 0.147551, Final residual = 9.90128e-06, No Iterations 115
ExecutionTime = 2.28 s  ClockTime = 3 s

Courant Number mean: 0.0348647 max: 0.999957
deltaT = 0.063081
Time = 0.927623

smoothSolver:  Solving for Ux, Initial residual = 0.0659881, Final residual = 9.97564e-06, No Iterations 231
smoothSolver:  Solving for Uy, Initial residual = 0.0444715, Final residual = 9.89133e-06, No Iterations 222
smoothSolver:  Solving for Uz, Initial residual = 0.0830729, Final residual = 9.9597e-06, No Iterations 115
Pressure gradient source: uncorrected Ubar = 0.135211, pressure gradient = -0.0212596
GAMGPCG:  Solving for p, Initial residual = 0.696162, Final residual = 0.00292087, No Iterations 1
GAMGPCG:  Solving for p, Initial residual = 0.00312404, Final residual = 9.63769e-06, No Iterations 2
GAMGPCG:  Solving for p, Initial residual = 9.67783e-06, Final residual = 3.16687e-08, No Iterations 2
time step continuity errors : sum local = 1.02494e-10, global = 1.41582e-19, cumulative = 5.81494e-18
Pressure gradient source: uncorrected Ubar = 0.135067, pressure gradient = -0.0177388
GAMGPCG:  Solving for p, Initial residual = 0.193606, Final residual = 0.00129331, No Iterations 1
GAMGPCG:  Solving for p, Initial residual = 0.00147038, Final residual = 1.71883e-06, No Iterations 3
GAMGPCG:  Solving for p, Initial residual = 1.71732e-06, Final residual = 3.37959e-17, No Iterations 12
time step continuity errors : sum local = 5.26158e-17, global = -3.42543e-19, cumulative = 5.4724e-18
Pressure gradient source: uncorrected Ubar = 0.135058, pressure gradient = -0.01751
smoothSolver:  Solving for epsilon, Initial residual = 0.842677, Final residual = 1.09041e-06, No Iterations 3
bounding epsilon, min: -0.103697 max: 1492.7 average: 2.94843
smoothSolver:  Solving for Rxx, Initial residual = 0.00756872, Final residual = 1.14692e-13, No Iterations 1
smoothSolver:  Solving for Rxy, Initial residual = 1, Final residual = 2.11088e-15, No Iterations 1
smoothSolver:  Solving for Rxz, Initial residual = 0.578565, Final residual = 8.3127e-15, No Iterations 1
smoothSolver:  Solving for Ryy, Initial residual = 1.35403e-06, Final residual = 1.35403e-06, No Iterations 0
smoothSolver:  Solving for Ryz, Initial residual = 0.396168, Final residual = 2.67666e-13, No Iterations 1
smoothSolver:  Solving for Rzz, Initial residual = 0.201931, Final residual = 1.53737e-14, No Iterations 1
smoothSolver:  Solving for alpha, Initial residual = 0.147354, Final residual = 9.71018e-06, No Iterations 110
ExecutionTime = 2.44 s  ClockTime = 3 s

Courant Number mean: 0.0237721 max: 0.545263
deltaT = 0.0670236
Time = 0.994646

smoothSolver:  Solving for Ux, Initial residual = 0.00664435, Final residual = 9.95844e-06, No Iterations 103
smoothSolver:  Solving for Uy, Initial residual = 0.0369423, Final residual = 6.0041e-05, No Iterations 1000
smoothSolver:  Solving for Uz, Initial residual = 0.0461485, Final residual = 9.994e-06, No Iterations 698
Pressure gradient source: uncorrected Ubar = 0.132494, pressure gradient = 0.00749474
GAMGPCG:  Solving for p, Initial residual = 0.915779, Final residual = 0.00296332, No Iterations 1
GAMGPCG:  Solving for p, Initial residual = 0.00396006, Final residual = 2.36111e-05, No Iterations 2
GAMGPCG:  Solving for p, Initial residual = 2.3632e-05, Final residual = 5.05986e-07, No Iterations 2
time step continuity errors : sum local = 4.2787e-09, global = -7.37977e-19, cumulative = 4.73442e-18
Pressure gradient source: uncorrected Ubar = 0.132576, pressure gradient = 0.00545935
GAMGPCG:  Solving for p, Initial residual = 0.414984, Final residual = 0.00255875, No Iterations 1
GAMGPCG:  Solving for p, Initial residual = 0.00376715, Final residual = 1.53348e-05, No Iterations 2
GAMGPCG:  Solving for p, Initial residual = 1.53725e-05, Final residual = 3.11164e-17, No Iterations 19
time step continuity errors : sum local = 6.32745e-17, global = -7.85044e-19, cumulative = 3.94938e-18
Pressure gradient source: uncorrected Ubar = 0.132581, pressure gradient = 0.00532111
smoothSolver:  Solving for epsilon, Initial residual = 0.506413, Final residual = 1.43748e-06, No Iterations 4
bounding epsilon, min: -185.738 max: 6025.05 average: 3.31515
smoothSolver:  Solving for Rxx, Initial residual = 0.000644669, Final residual = 6.85493e-14, No Iterations 1
smoothSolver:  Solving for Rxy, Initial residual = 1, Final residual = 1.40566e-14, No Iterations 1
smoothSolver:  Solving for Rxz, Initial residual = 0.805508, Final residual = 6.57155e-14, No Iterations 1
smoothSolver:  Solving for Ryy, Initial residual = 9.19834e-08, Final residual = 9.19834e-08, No Iterations 0
smoothSolver:  Solving for Ryz, Initial residual = 0.12461, Final residual = 2.5392e-13, No Iterations 1
smoothSolver:  Solving for Rzz, Initial residual = 0.0308723, Final residual = 3.26881e-14, No Iterations 1
smoothSolver:  Solving for alpha, Initial residual = 0.139933, Final residual = 9.75902e-06, No Iterations 108
ExecutionTime = 2.75 s  ClockTime = 3 s

Courant Number mean: 0.0268791 max: 0.54763
deltaT = 0.071811
Time = 1.06646

smoothSolver:  Solving for Ux, Initial residual = 0.0111042, Final residual = 9.97404e-06, No Iterations 360
smoothSolver:  Solving for Uy, Initial residual = 0.177688, Final residual = 9.95886e-06, No Iterations 899
smoothSolver:  Solving for Uz, Initial residual = 0.0909983, Final residual = 9.94389e-06, No Iterations 439
Pressure gradient source: uncorrected Ubar = 0.134575, pressure gradient = -0.0197701
GAMGPCG:  Solving for p, Initial residual = 0.977096, Final residual = 0.000567752, No Iterations 2
GAMGPCG:  Solving for p, Initial residual = 0.000354813, Final residual = 4.39218e-07, No Iterations 3
GAMGPCG:  Solving for p, Initial residual = 4.40171e-07, Final residual = 4.40171e-07, No Iterations 0
time step continuity errors : sum local = 4.30497e-08, global = 1.10279e-18, cumulative = 5.05217e-18
Pressure gradient source: uncorrected Ubar = 0.134477, pressure gradient = -0.0174837
GAMGPCG:  Solving for p, Initial residual = 0.376456, Final residual = 0.000229344, No Iterations 2
GAMGPCG:  Solving for p, Initial residual = 0.000342926, Final residual = 3.51131e-07, No Iterations 3
GAMGPCG:  Solving for p, Initial residual = 3.51552e-07, Final residual = 3.37384e-17, No Iterations 12
time step continuity errors : sum local = 8.11465e-17, global = 3.14527e-19, cumulative = 5.3667e-18
Pressure gradient source: uncorrected Ubar = 0.134472, pressure gradient = -0.0173654
smoothSolver:  Solving for epsilon, Initial residual = 0.661816, Final residual = 3.67424e-06, No Iterations 3
bounding epsilon, min: -7.71568 max: 623.424 average: 2.69208
smoothSolver:  Solving for Rxx, Initial residual = 0.00346448, Final residual = 2.56261e-14, No Iterations 1
smoothSolver:  Solving for Rxy, Initial residual = 1, Final residual = 1.76735e-15, No Iterations 1
smoothSolver:  Solving for Rxz, Initial residual = 0.568805, Final residual = 1.75492e-14, No Iterations 1
smoothSolver:  Solving for Ryy, Initial residual = 1.97763e-06, Final residual = 1.97763e-06, No Iterations 0
smoothSolver:  Solving for Ryz, Initial residual = 0.856201, Final residual = 5.99709e-14, No Iterations 1
smoothSolver:  Solving for Rzz, Initial residual = 0.148312, Final residual = 1.19702e-13, No Iterations 1
smoothSolver:  Solving for alpha, Initial residual = 0.119983, Final residual = 9.91962e-06, No Iterations 100
ExecutionTime = 3.05 s  ClockTime = 3 s

Courant Number mean: 0.0300209 max: 1.17422
deltaT = 0.0424338
Time = 1.10889

smoothSolver:  Solving for Ux, Initial residual = 0.000553838, Final residual = 9.40732e-06, No Iterations 11
smoothSolver:  Solving for Uy, Initial residual = 0.149453, Final residual = 9.8561e-06, No Iterations 102
smoothSolver:  Solving for Uz, Initial residual = 0.0339726, Final residual = 9.88457e-06, No Iterations 144
Pressure gradient source: uncorrected Ubar = 0.132889, pressure gradient = 0.00376582
GAMGPCG:  Solving for p, Initial residual = 0.990979, Final residual = 0.00214493, No Iterations 1
GAMGPCG:  Solving for p, Initial residual = 0.00345868, Final residual = 1.07256e-05, No Iterations 2
GAMGPCG:  Solving for p, Initial residual = 1.0753e-05, Final residual = 1.09768e-07, No Iterations 2
time step continuity errors : sum local = 1.42532e-08, global = 2.8599e-20, cumulative = 5.39529e-18
Pressure gradient source: uncorrected Ubar = 0.132931, pressure gradient = 0.00232677
GAMGPCG:  Solving for p, Initial residual = 0.701463, Final residual = 0.00129192, No Iterations 1
GAMGPCG:  Solving for p, Initial residual = 0.00371112, Final residual = 2.65335e-05, No Iterations 2
GAMGPCG:  Solving for p, Initial residual = 2.66049e-05, Final residual = 4.78268e-17, No Iterations 20
time step continuity errors : sum local = 7.16945e-17, global = 2.8797e-19, cumulative = 5.68327e-18
Pressure gradient source: uncorrected Ubar = 0.132938, pressure gradient = 0.00207436
smoothSolver:  Solving for epsilon, Initial residual = 0.748296, Final residual = 6.0535e-07, No Iterations 3
bounding epsilon, min: -61.3958 max: 2268.83 average: 2.48975
smoothSolver:  Solving for Rxx, Initial residual = 0.00276268, Final residual = 1.15611e-12, No Iterations 1
smoothSolver:  Solving for Rxy, Initial residual = 1, Final residual = 1.35149e-12, No Iterations 1
smoothSolver:  Solving for Rxz, Initial residual = 0.495789, Final residual = 1.88522e-12, No Iterations 1
smoothSolver:  Solving for Ryy, Initial residual = 1.36427e-07, Final residual = 1.36427e-07, No Iterations 0
smoothSolver:  Solving for Ryz, Initial residual = 0.256731, Final residual = 8.87022e-12, No Iterations 1
smoothSolver:  Solving for Rzz, Initial residual = 0.0853363, Final residual = 4.25231e-12, No Iterations 1
smoothSolver:  Solving for alpha, Initial residual = 0.117102, Final residual = 9.78971e-06, No Iterations 92
ExecutionTime = 3.18 s  ClockTime = 3 s

Courant Number mean: 0.0179259 max: 0.599193
deltaT = 0.0469005
Time = 1.15579

smoothSolver:  Solving for Ux, Initial residual = 0.00182975, Final residual = 9.86487e-06, No Iterations 21
smoothSolver:  Solving for Uy, Initial residual = 0.0484502, Final residual = 0.00276062, No Iterations 1000
smoothSolver:  Solving for Uz, Initial residual = 0.000647561, Final residual = 6.24491e-06, No Iterations 3
Pressure gradient source: uncorrected Ubar = 0.134087, pressure gradient = -0.018335
GAMGPCG:  Solving for p, Initial residual = 0.942112, Final residual = 0.00117222, No Iterations 1
GAMGPCG:  Solving for p, Initial residual = 0.00214447, Final residual = 1.42799e-05, No Iterations 2
GAMGPCG:  Solving for p, Initial residual = 1.43028e-05, Final residual = 1.34895e-07, No Iterations 2
time step continuity errors : sum local = 9.02506e-09, global = 6.43229e-20, cumulative = 5.74759e-18
Pressure gradient source: uncorrected Ubar = 0.134029, pressure gradient = -0.0163263
GAMGPCG:  Solving for p, Initial residual = 0.609506, Final residual = 0.00112527, No Iterations 1
GAMGPCG:  Solving for p, Initial residual = 0.00223257, Final residual = 4.61638e-06, No Iterations 2
GAMGPCG:  Solving for p, Initial residual = 4.62e-06, Final residual = 6.27478e-17, No Iterations 15
time step continuity errors : sum local = 8.41626e-17, global = -3.46912e-19, cumulative = 5.40068e-18
Pressure gradient source: uncorrected Ubar = 0.134053, pressure gradient = -0.0171472
smoothSolver:  Solving for epsilon, Initial residual = 0.710801, Final residual = 2.34008e-06, No Iterations 3
bounding epsilon, min: -5.33062 max: 1126.7 average: 2.51923
smoothSolver:  Solving for Rxx, Initial residual = 0.0228524, Final residual = 2.46011e-13, No Iterations 1
smoothSolver:  Solving for Rxy, Initial residual = 1, Final residual = 6.84798e-13, No Iterations 1
smoothSolver:  Solving for Rxz, Initial residual = 0.71641, Final residual = 5.02933e-13, No Iterations 1
smoothSolver:  Solving for Ryy, Initial residual = 3.56554e-06, Final residual = 3.56554e-06, No Iterations 0
smoothSolver:  Solving for Ryz, Initial residual = 0.092007, Final residual = 3.3118e-12, No Iterations 1
smoothSolver:  Solving for Rzz, Initial residual = 0.256322, Final residual = 1.18991e-12, No Iterations 1
smoothSolver:  Solving for alpha, Initial residual = 0.113628, Final residual = 9.95553e-06, No Iterations 93
ExecutionTime = 3.4 s  ClockTime = 4 s

Courant Number mean: 0.0206672 max: 1.25022
deltaT = 0.0255821
Time = 1.18137

smoothSolver:  Solving for Ux, Initial residual = 0.0436975, Final residual = 9.52419e-06, No Iterations 43
smoothSolver:  Solving for Uy, Initial residual = 0.88049, Final residual = 9.29127e-06, No Iterations 47
smoothSolver:  Solving for Uz, Initial residual = 0.105964, Final residual = 9.99716e-06, No Iterations 33
Pressure gradient source: uncorrected Ubar = 0.133134, pressure gradient = 0.00304707
GAMGPCG:  Solving for p, Initial residual = 0.944081, Final residual = 0.00218803, No Iterations 1
GAMGPCG:  Solving for p, Initial residual = 0.0070611, Final residual = 1.60848e-05, No Iterations 2
GAMGPCG:  Solving for p, Initial residual = 1.62032e-05, Final residual = 1.31743e-07, No Iterations 2
time step continuity errors : sum local = 6.3186e-08, global = 3.33438e-19, cumulative = 5.73411e-18
Pressure gradient source: uncorrected Ubar = 0.133116, pressure gradient = 0.00402707
GAMGPCG:  Solving for p, Initial residual = 0.894977, Final residual = 0.00262405, No Iterations 1
GAMGPCG:  Solving for p, Initial residual = 0.0180945, Final residual = 3.62239e-05, No Iterations 2
GAMGPCG:  Solving for p, Initial residual = 3.68267e-05, Final residual = 9.31021e-17, No Iterations 18
time step continuity errors : sum local = 3.39516e-17, global = 3.21882e-19, cumulative = 6.05599e-18
Pressure gradient source: uncorrected Ubar = 0.133132, pressure gradient = 0.00318615
smoothSolver:  Solving for epsilon, Initial residual = 0.293337, Final residual = 4.46551e-06, No Iterations 3
bounding epsilon, min: -3.65932 max: 840.052 average: 2.38262
smoothSolver:  Solving for Rxx, Initial residual = 0.00845521, Final residual = 1.9276e-13, No Iterations 1
smoothSolver:  Solving for Rxy, Initial residual = 1, Final residual = 3.4745e-15, No Iterations 1
smoothSolver:  Solving for Rxz, Initial residual = 0.627901, Final residual = 8.27679e-14, No Iterations 1
smoothSolver:  Solving for Ryy, Initial residual = 3.1216e-07, Final residual = 3.1216e-07, No Iterations 0
smoothSolver:  Solving for Ryz, Initial residual = 0.227471, Final residual = 5.60897e-13, No Iterations 1
smoothSolver:  Solving for Rzz, Initial residual = 0.0943828, Final residual = 1.87678e-14, No Iterations 1
smoothSolver:  Solving for alpha, Initial residual = 0.107677, Final residual = 9.75753e-06, No Iterations 89
ExecutionTime = 3.52 s  ClockTime = 4 s

Courant Number mean: 0.011223 max: 0.475945
deltaT = 0.0292367
Time = 1.21061

smoothSolver:  Solving for Ux, Initial residual = 0.0361534, Final residual = 9.92113e-06, No Iterations 110
smoothSolver:  Solving for Uy, Initial residual = 0.0718044, Final residual = 9.83105e-06, No Iterations 271
smoothSolver:  Solving for Uz, Initial residual = 0.0646916, Final residual = 9.91851e-06, No Iterations 197
Pressure gradient source: uncorrected Ubar = 0.133723, pressure gradient = -0.00899735
GAMGPCG:  Solving for p, Initial residual = 0.571702, Final residual = 0.00263552, No Iterations 1
GAMGPCG:  Solving for p, Initial residual = 0.00417636, Final residual = 1.84332e-05, No Iterations 2
GAMGPCG:  Solving for p, Initial residual = 1.85219e-05, Final residual = 2.22875e-07, No Iterations 2
time step continuity errors : sum local = 5.05582e-09, global = -6.79658e-19, cumulative = 5.37634e-18
Pressure gradient source: uncorrected Ubar = 0.133714, pressure gradient = -0.00853613
GAMGPCG:  Solving for p, Initial residual = 0.147341, Final residual = 8.63739e-05, No Iterations 2
GAMGPCG:  Solving for p, Initial residual = 8.76398e-05, Final residual = 1.21512e-07, No Iterations 3
GAMGPCG:  Solving for p, Initial residual = 1.21397e-07, Final residual = 8.74478e-17, No Iterations 12
time step continuity errors : sum local = 2.14793e-17, global = 1.84984e-19, cumulative = 5.56132e-18
Pressure gradient source: uncorrected Ubar = 0.133714, pressure gradient = -0.00854148
smoothSolver:  Solving for epsilon, Initial residual = 0.305219, Final residual = 1.39552e-06, No Iterations 3
bounding epsilon, min: -15.6601 max: 7699.12 average: 2.98249
smoothSolver:  Solving for Rxx, Initial residual = 0.00732145, Final residual = 1.01626e-12, No Iterations 1
smoothSolver:  Solving for Rxy, Initial residual = 1, Final residual = 8.24759e-14, No Iterations 1
smoothSolver:  Solving for Rxz, Initial residual = 0.726652, Final residual = 3.01551e-13, No Iterations 1
smoothSolver:  Solving for Ryy, Initial residual = 3.11783e-07, Final residual = 3.11783e-07, No Iterations 0
smoothSolver:  Solving for Ryz, Initial residual = 0.389981, Final residual = 1.09663e-11, No Iterations 1
smoothSolver:  Solving for Rzz, Initial residual = 0.0746475, Final residual = 2.14931e-13, No Iterations 1
smoothSolver:  Solving for alpha, Initial residual = 0.0922566, Final residual = 9.85104e-06, No Iterations 86
ExecutionTime = 3.67 s  ClockTime = 4 s

Courant Number mean: 0.0128762 max: 0.539623
deltaT = 0.0328912
Time = 1.2435

smoothSolver:  Solving for Ux, Initial residual = 0.0589033, Final residual = 1.56706e-05, No Iterations 1000
smoothSolver:  Solving for Uy, Initial residual = 0.234076, Final residual = 0.000520992, No Iterations 1000
smoothSolver:  Solving for Uz, Initial residual = 0.00271447, Final residual = 2.43559e-05, No Iterations 1000
Pressure gradient source: uncorrected Ubar = 0.133188, pressure gradient = 0.00669977
GAMGPCG:  Solving for p, Initial residual = 0.81188, Final residual = 0.0055838, No Iterations 1
GAMGPCG:  Solving for p, Initial residual = 0.0049824, Final residual = 2.05317e-05, No Iterations 2
GAMGPCG:  Solving for p, Initial residual = 2.06395e-05, Final residual = 1.98366e-07, No Iterations 2
time step continuity errors : sum local = 1.32809e-08, global = 4.54252e-19, cumulative = 6.01557e-18
Pressure gradient source: uncorrected Ubar = 0.133196, pressure gradient = 0.00629775
GAMGPCG:  Solving for p, Initial residual = 0.364822, Final residual = 0.00318669, No Iterations 1
GAMGPCG:  Solving for p, Initial residual = 0.00477183, Final residual = 2.09549e-05, No Iterations 2
GAMGPCG:  Solving for p, Initial residual = 2.10611e-05, Final residual = 9.41646e-17, No Iterations 12
time step continuity errors : sum local = 2.22027e-17, global = 2.566e-19, cumulative = 6.27217e-18
Pressure gradient source: uncorrected Ubar = 0.133197, pressure gradient = 0.00624518
smoothSolver:  Solving for epsilon, Initial residual = 0.665301, Final residual = 7.80972e-06, No Iterations 2
bounding epsilon, min: -5.35723 max: 453.254 average: 1.78346
smoothSolver:  Solving for Rxx, Initial residual = 0.0648839, Final residual = 2.3365e-10, No Iterations 1
smoothSolver:  Solving for Rxy, Initial residual = 1, Final residual = 9.18447e-13, No Iterations 1
smoothSolver:  Solving for Rxz, Initial residual = 0.991399, Final residual = 4.50866e-12, No Iterations 1
smoothSolver:  Solving for Ryy, Initial residual = 5.71934e-06, Final residual = 5.71934e-06, No Iterations 0
smoothSolver:  Solving for Ryz, Initial residual = 0.0339322, Final residual = 1.27466e-10, No Iterations 1
smoothSolver:  Solving for Rzz, Initial residual = 0.725642, Final residual = 6.69248e-11, No Iterations 1
smoothSolver:  Solving for alpha, Initial residual = 0.0781015, Final residual = 9.68798e-06, No Iterations 86
ExecutionTime = 4.11 s  ClockTime = 4 s

Courant Number mean: 0.0146252 max: 0.51805
deltaT = 0.0360237
Time = 1.27953

smoothSolver:  Solving for Ux, Initial residual = 0.00680489, Final residual = 9.99048e-06, No Iterations 205
smoothSolver:  Solving for Uy, Initial residual = 0.197991, Final residual = 0.123632, No Iterations 1000
smoothSolver:  Solving for Uz, Initial residual = 0.000272356, Final residual = 1.28581e-05, No Iterations 1000
Pressure gradient source: uncorrected Ubar = 0.1339, pressure gradient = -0.0115597
GAMGPCG:  Solving for p, Initial residual = 0.871325, Final residual = 0.000522951, No Iterations 2
GAMGPCG:  Solving for p, Initial residual = 0.000536189, Final residual = 1.1529e-06, No Iterations 3
GAMGPCG:  Solving for p, Initial residual = 1.15745e-06, Final residual = 6.07569e-08, No Iterations 1
time step continuity errors : sum local = 6.86984e-09, global = -5.54597e-19, cumulative = 5.71758e-18
Pressure gradient source: uncorrected Ubar = 0.138103, pressure gradient = -0.19875
GAMGPCG:  Solving for p, Initial residual = 0.20788, Final residual = 0.000237907, No Iterations 2
GAMGPCG:  Solving for p, Initial residual = 0.000328125, Final residual = 3.84709e-07, No Iterations 3
GAMGPCG:  Solving for p, Initial residual = 3.84425e-07, Final residual = 8.99666e-17, No Iterations 14
time step continuity errors : sum local = 7.47832e-16, global = -5.71098e-19, cumulative = 5.14648e-18
Pressure gradient source: uncorrected Ubar = 0.136675, pressure gradient = -0.135122
smoothSolver:  Solving for epsilon, Initial residual = 0.558712, Final residual = 9.09711e-06, No Iterations 31
bounding epsilon, min: -136.15 max: 20206.1 average: 8.28681
smoothSolver:  Solving for Rxx, Initial residual = 0.015555, Final residual = 1.83986e-13, No Iterations 1
smoothSolver:  Solving for Rxy, Initial residual = 0.999999, Final residual = 6.94827e-15, No Iterations 1
smoothSolver:  Solving for Rxz, Initial residual = 0.839761, Final residual = 3.44455e-11, No Iterations 1
smoothSolver:  Solving for Ryy, Initial residual = 7.79144e-07, Final residual = 7.79144e-07, No Iterations 0
smoothSolver:  Solving for Ryz, Initial residual = 0.668039, Final residual = 5.69944e-12, No Iterations 1
smoothSolver:  Solving for Rzz, Initial residual = 0.237839, Final residual = 5.38511e-13, No Iterations 1
smoothSolver:  Solving for alpha, Initial residual = 0.1517, Final residual = 9.92325e-06, No Iterations 81
ExecutionTime = 4.46 s  ClockTime = 5 s

Courant Number mean: 0.0669151 max: 105.931
deltaT = 0.000238016
Time = 1.27976

smoothSolver:  Solving for Ux, Initial residual = 0.0060424, Final residual = 9.99703e-06, No Iterations 970
smoothSolver:  Solving for Uy, Initial residual = 0.0627516, Final residual = 0.000115298, No Iterations 1000
smoothSolver:  Solving for Uz, Initial residual = 0.000123113, Final residual = 1.20541e-05, No Iterations 1000
Pressure gradient source: uncorrected Ubar = 0.13346, pressure gradient = 0.0356289
GAMGPCG:  Solving for p, Initial residual = 0.891432, Final residual = 0.00233956, No Iterations 1
GAMGPCG:  Solving for p, Initial residual = 0.00615032, Final residual = 4.15038e-05, No Iterations 2
GAMGPCG:  Solving for p, Initial residual = 4.20325e-05, Final residual = 5.60709e-07, No Iterations 2
time step continuity errors : sum local = 2.03789e-09, global = -1.4718e-21, cumulative = 5.14501e-18
Pressure gradient source: uncorrected Ubar = 0.133365, pressure gradient = 0.437567
GAMGPCG:  Solving for p, Initial residual = 0.813871, Final residual = 0.00217499, No Iterations 1
GAMGPCG:  Solving for p, Initial residual = 0.00695784, Final residual = 3.48325e-05, No Iterations 3
GAMGPCG:  Solving for p, Initial residual = 3.47867e-05, Final residual = 5.73569e-17, No Iterations 17
time step continuity errors : sum local = 2.67073e-18, global = 6.78112e-22, cumulative = 5.14568e-18
Pressure gradient source: uncorrected Ubar = 0.133431, pressure gradient = 0.157678
smoothSolver:  Solving for epsilon, Initial residual = 0.0938231, Final residual = 3.06547e-06, No Iterations 3
smoothSolver:  Solving for Rxx, Initial residual = 0.0132343, Final residual = 5.38114e-10, No Iterations 1
smoothSolver:  Solving for Rxy, Initial residual = 0.999517, Final residual = 1.01639e-12, No Iterations 1
smoothSolver:  Solving for Rxz, Initial residual = 0.000169036, Final residual = 9.87697e-12, No Iterations 1
smoothSolver:  Solving for Ryy, Initial residual = 1.07338e-08, Final residual = 1.07338e-08, No Iterations 0
smoothSolver:  Solving for Ryz, Initial residual = 0.00389231, Final residual = 8.30732e-10, No Iterations 1
smoothSolver:  Solving for Rzz, Initial residual = 0.17393, Final residual = 3.28841e-10, No Iterations 1
smoothSolver:  Solving for alpha, Initial residual = 0.0292167, Final residual = 9.56216e-06, No Iterations 43
ExecutionTime = 4.89 s  ClockTime = 5 s

Courant Number mean: 0.000357449 max: 0.414373
deltaT = 0.000278191
Time = 1.28004

smoothSolver:  Solving for Ux, Initial residual = 0.0287599, Final residual = 4.61879e-06, No Iterations 4
smoothSolver:  Solving for Uy, Initial residual = 0.761913, Final residual = 3.37638e-06, No Iterations 8
smoothSolver:  Solving for Uz, Initial residual = 0.078691, Final residual = 2.49312e-06, No Iterations 7
Pressure gradient source: uncorrected Ubar = 0.133523, pressure gradient = 0.0293612
GAMGPCG:  Solving for p, Initial residual = 0.982886, Final residual = 0.00274118, No Iterations 1
GAMGPCG:  Solving for p, Initial residual = 0.00427711, Final residual = 3.08783e-05, No Iterations 2
GAMGPCG:  Solving for p, Initial residual = 3.11162e-05, Final residual = 3.61972e-07, No Iterations 2
time step continuity errors : sum local = 5.58706e-09, global = -5.50415e-21, cumulative = 5.14018e-18
Pressure gradient source: uncorrected Ubar = 0.133525, pressure gradient = 0.0194867
GAMGPCG:  Solving for p, Initial residual = 0.667772, Final residual = 0.00161236, No Iterations 1
GAMGPCG:  Solving for p, Initial residual = 0.00468026, Final residual = 4.35292e-05, No Iterations 2
GAMGPCG:  Solving for p, Initial residual = 4.39183e-05, Final residual = 4.91498e-17, No Iterations 21
time step continuity errors : sum local = 2.21532e-18, global = -1.74233e-20, cumulative = 5.12276e-18
Pressure gradient source: uncorrected Ubar = 0.133523, pressure gradient = 0.0282973
smoothSolver:  Solving for epsilon, Initial residual = 0.0253996, Final residual = 1.04097e-06, No Iterations 3
smoothSolver:  Solving for Rxx, Initial residual = 0.00923739, Final residual = 4.57472e-13, No Iterations 1
smoothSolver:  Solving for Rxy, Initial residual = 0.994905, Final residual = 6.24914e-14, No Iterations 1
smoothSolver:  Solving for Rxz, Initial residual = 0.311499, Final residual = 7.00642e-11, No Iterations 1
smoothSolver:  Solving for Ryy, Initial residual = 3.72618e-07, Final residual = 3.72618e-07, No Iterations 0
smoothSolver:  Solving for Ryz, Initial residual = 0.00633837, Final residual = 1.50897e-11, No Iterations 1
smoothSolver:  Solving for Rzz, Initial residual = 0.0301694, Final residual = 8.02464e-11, No Iterations 1
smoothSolver:  Solving for alpha, Initial residual = 0.0172706, Final residual = 9.98773e-06, No Iterations 25
ExecutionTime = 4.99 s  ClockTime = 5 s

Courant Number mean: 0.000370271 max: 0.313136
deltaT = 0.000333778
Time = 1.28038

smoothSolver:  Solving for Ux, Initial residual = 0.000341703, Final residual = 2.54696e-06, No Iterations 2
smoothSolver:  Solving for Uy, Initial residual = 0.00263262, Final residual = 2.34383e-06, No Iterations 3
smoothSolver:  Solving for Uz, Initial residual = 0.0218248, Final residual = 0.00250431, No Iterations 1000
Pressure gradient source: uncorrected Ubar = 0.133497, pressure gradient = 0.0411045
GAMGPCG:  Solving for p, Initial residual = 0.525058, Final residual = 0.000797033, No Iterations 1
GAMGPCG:  Solving for p, Initial residual = 0.00137557, Final residual = 2.39165e-06, No Iterations 3
GAMGPCG:  Solving for p, Initial residual = 2.39743e-06, Final residual = 1.34365e-07, No Iterations 1
time step continuity errors : sum local = 5.04868e-10, global = -5.44095e-22, cumulative = 5.12221e-18
Pressure gradient source: uncorrected Ubar = 0.133499, pressure gradient = 0.0321882
GAMGPCG:  Solving for p, Initial residual = 0.0345774, Final residual = 7.44862e-05, No Iterations 1
GAMGPCG:  Solving for p, Initial residual = 7.3487e-05, Final residual = 5.59743e-07, No Iterations 2
GAMGPCG:  Solving for p, Initial residual = 5.59677e-07, Final residual = 5.92773e-17, No Iterations 14
time step continuity errors : sum local = 1.7693e-18, global = -5.04408e-21, cumulative = 5.11717e-18
Pressure gradient source: uncorrected Ubar = 0.133498, pressure gradient = 0.0364145
smoothSolver:  Solving for epsilon, Initial residual = 0.01816, Final residual = 1.17685e-06, No Iterations 3
bounding epsilon, min: -1848.91 max: 267.452 average: 2.19588
smoothSolver:  Solving for Rxx, Initial residual = 0.0107007, Final residual = 6.23242e-13, No Iterations 1
smoothSolver:  Solving for Rxy, Initial residual = 0.996222, Final residual = 4.32822e-13, No Iterations 1
smoothSolver:  Solving for Rxz, Initial residual = 0.969761, Final residual = 1.34193e-10, No Iterations 1
smoothSolver:  Solving for Ryy, Initial residual = 2.92412e-07, Final residual = 2.92412e-07, No Iterations 0
smoothSolver:  Solving for Ryz, Initial residual = 0.592066, Final residual = 5.41342e-11, No Iterations 1
smoothSolver:  Solving for Rzz, Initial residual = 0.0583853, Final residual = 2.09652e-10, No Iterations 1
smoothSolver:  Solving for alpha, Initial residual = 0.0109362, Final residual = 9.78433e-06, No Iterations 27
ExecutionTime = 5.19 s  ClockTime = 5 s

Courant Number mean: 0.000394984 max: 0.302334
deltaT = 0.000400459
Time = 1.28078

smoothSolver:  Solving for Ux, Initial residual = 0.0232364, Final residual = 5.35836e-06, No Iterations 4
smoothSolver:  Solving for Uy, Initial residual = 0.662663, Final residual = 2.86918e-06, No Iterations 6
smoothSolver:  Solving for Uz, Initial residual = 0.0943038, Final residual = 3.30142e-06, No Iterations 5
Pressure gradient source: uncorrected Ubar = 0.133503, pressure gradient = 0.0229838
GAMGPCG:  Solving for p, Initial residual = 0.965183, Final residual = 0.00161395, No Iterations 1
GAMGPCG:  Solving for p, Initial residual = 0.0106558, Final residual = 9.73581e-05, No Iterations 2
GAMGPCG:  Solving for p, Initial residual = 9.82271e-05, Final residual = 2.9391e-07, No Iterations 3
time step continuity errors : sum local = 1.84178e-09, global = -1.10977e-20, cumulative = 5.10607e-18
Pressure gradient source: uncorrected Ubar = 0.133505, pressure gradient = 0.016738
GAMGPCG:  Solving for p, Initial residual = 0.567836, Final residual = 0.000299075, No Iterations 1
GAMGPCG:  Solving for p, Initial residual = 0.000587438, Final residual = 5.83881e-06, No Iterations 2
GAMGPCG:  Solving for p, Initial residual = 5.8401e-06, Final residual = 2.3986e-17, No Iterations 16
time step continuity errors : sum local = 1.21831e-18, global = -1.33711e-21, cumulative = 5.10473e-18
Pressure gradient source: uncorrected Ubar = 0.133503, pressure gradient = 0.0252731
smoothSolver:  Solving for epsilon, Initial residual = 0.0170707, Final residual = 1.10234e-06, No Iterations 3
bounding epsilon, min: -247.046 max: 186.062 average: 2.26056
smoothSolver:  Solving for Rxx, Initial residual = 0.0391365, Final residual = 1.77584e-10, No Iterations 1
smoothSolver:  Solving for Rxy, Initial residual = 0.996148, Final residual = 1.14845e-13, No Iterations 1
smoothSolver:  Solving for Rxz, Initial residual = 0.418285, Final residual = 5.85686e-11, No Iterations 1
smoothSolver:  Solving for Ryy, Initial residual = 2.12267e-06, Final residual = 2.12267e-06, No Iterations 0
smoothSolver:  Solving for Ryz, Initial residual = 0.0114696, Final residual = 4.40111e-11, No Iterations 1
smoothSolver:  Solving for Rzz, Initial residual = 0.257178, Final residual = 3.78534e-11, No Iterations 1
smoothSolver:  Solving for alpha, Initial residual = 0.0181081, Final residual = 9.59465e-06, No Iterations 36
ExecutionTime = 5.29 s  ClockTime = 6 s

Courant Number mean: 0.000435535 max: 0.320624
deltaT = 0.000480444
Time = 1.28126

smoothSolver:  Solving for Ux, Initial residual = 0.00037051, Final residual = 6.92104e-06, No Iterations 2
smoothSolver:  Solving for Uy, Initial residual = 0.00464808, Final residual = 1.53902e-05, No Iterations 1000
smoothSolver:  Solving for Uz, Initial residual = 0.0046691, Final residual = 9.99927e-06, No Iterations 63
Pressure gradient source: uncorrected Ubar = 0.133521, pressure gradient = -0.0416983
GAMGPCG:  Solving for p, Initial residual = 0.471814, Final residual = 0.000153749, No Iterations 1
GAMGPCG:  Solving for p, Initial residual = 0.000246225, Final residual = 1.57943e-06, No Iterations 2
GAMGPCG:  Solving for p, Initial residual = 1.57992e-06, Final residual = 1.59713e-07, No Iterations 1
time step continuity errors : sum local = 2.57021e-10, global = 5.83407e-21, cumulative = 5.11057e-18
Pressure gradient source: uncorrected Ubar = 0.133527, pressure gradient = -0.0602298
GAMGPCG:  Solving for p, Initial residual = 0.0221944, Final residual = 4.74775e-05, No Iterations 1
GAMGPCG:  Solving for p, Initial residual = 4.72401e-05, Final residual = 4.50112e-07, No Iterations 2
GAMGPCG:  Solving for p, Initial residual = 4.50152e-07, Final residual = 3.83036e-17, No Iterations 20
time step continuity errors : sum local = 6.80628e-19, global = -2.71035e-21, cumulative = 5.10786e-18
Pressure gradient source: uncorrected Ubar = 0.133528, pressure gradient = -0.0648592
smoothSolver:  Solving for epsilon, Initial residual = 0.00914722, Final residual = 9.73996e-07, No Iterations 3
bounding epsilon, min: -42.7053 max: 174.086 average: 2.17188
smoothSolver:  Solving for Rxx, Initial residual = 0.00699553, Final residual = 2.40611e-13, No Iterations 1
smoothSolver:  Solving for Rxy, Initial residual = 0.993554, Final residual = 6.65113e-15, No Iterations 1
smoothSolver:  Solving for Rxz, Initial residual = 0.238507, Final residual = 5.27756e-12, No Iterations 1
smoothSolver:  Solving for Ryy, Initial residual = 6.33372e-07, Final residual = 6.33372e-07, No Iterations 0
smoothSolver:  Solving for Ryz, Initial residual = 0.0399912, Final residual = 3.3438e-11, No Iterations 1
smoothSolver:  Solving for Rzz, Initial residual = 0.0651792, Final residual = 9.01661e-12, No Iterations 1
smoothSolver:  Solving for alpha, Initial residual = 0.0153315, Final residual = 9.82205e-06, No Iterations 36
ExecutionTime = 5.51 s  ClockTime = 6 s

Courant Number mean: 0.000495612 max: 0.347285
deltaT = 0.000576378
Time = 1.28183

smoothSolver:  Solving for Ux, Initial residual = 0.0128042, Final residual = 1.55585e-06, No Iterations 4
smoothSolver:  Solving for Uy, Initial residual = 0.0912181, Final residual = 3.27341e-06, No Iterations 5
smoothSolver:  Solving for Uz, Initial residual = 0.061122, Final residual = 6.03956e-06, No Iterations 5
Pressure gradient source: uncorrected Ubar = 0.133468, pressure gradient = 0.0207677
GAMGPCG:  Solving for p, Initial residual = 0.376905, Final residual = 0.000181197, No Iterations 1
GAMGPCG:  Solving for p, Initial residual = 0.000249079, Final residual = 6.79644e-07, No Iterations 3
GAMGPCG:  Solving for p, Initial residual = 6.79569e-07, Final residual = 6.79569e-07, No Iterations 0
time step continuity errors : sum local = 7.90638e-10, global = 8.63451e-21, cumulative = 5.11649e-18
Pressure gradient source: uncorrected Ubar = 0.133468, pressure gradient = 0.021179
GAMGPCG:  Solving for p, Initial residual = 0.0185539, Final residual = 5.91624e-06, No Iterations 1
GAMGPCG:  Solving for p, Initial residual = 5.91619e-06, Final residual = 2.29126e-07, No Iterations 1
GAMGPCG:  Solving for p, Initial residual = 2.29128e-07, Final residual = 8.61409e-17, No Iterations 15
time step continuity errors : sum local = 7.98854e-19, global = 1.35196e-21, cumulative = 5.11784e-18
Pressure gradient source: uncorrected Ubar = 0.133468, pressure gradient = 0.0203379
smoothSolver:  Solving for epsilon, Initial residual = 0.0082378, Final residual = 7.93748e-07, No Iterations 3
bounding epsilon, min: -4.79469 max: 252.436 average: 2.16016
smoothSolver:  Solving for Rxx, Initial residual = 0.0283536, Final residual = 4.72688e-13, No Iterations 1
smoothSolver:  Solving for Rxy, Initial residual = 0.998259, Final residual = 2.70539e-15, No Iterations 1
smoothSolver:  Solving for Rxz, Initial residual = 0.345713, Final residual = 1.66331e-12, No Iterations 1
smoothSolver:  Solving for Ryy, Initial residual = 8.91055e-08, Final residual = 8.91055e-08, No Iterations 0
smoothSolver:  Solving for Ryz, Initial residual = 0.00779871, Final residual = 2.9234e-13, No Iterations 1
[...]
ExecutionTime = 55.56 s  ClockTime = 56 s

Courant Number mean: 0.0451686 max: 0.699988
deltaT = 5.36198e-09
Time = 1.2875330435724

smoothSolver:  Solving for Ux, Initial residual = 0.000273723, Final residual = 3.59132e-06, No Iterations 1
smoothSolver:  Solving for Uy, Initial residual = 0.00382815, Final residual = 8.30951e-07, No Iterations 2
smoothSolver:  Solving for Uz, Initial residual = 0.000659571, Final residual = 9.42212e-06, No Iterations 1
Pressure gradient source: uncorrected Ubar = -0.280263, pressure gradient = 1.19066e+08
GAMGPCG:  Solving for p, Initial residual = 0.00475983, Final residual = 1.15531e-05, No Iterations 2
GAMGPCG:  Solving for p, Initial residual = 1.15951e-05, Final residual = 2.1785e-07, No Iterations 2
GAMGPCG:  Solving for p, Initial residual = 2.17923e-07, Final residual = 2.17923e-07, No Iterations 0
time step continuity errors : sum local = 2.24823e-11, global = -1.36595e-18, cumulative = 5.34493e-15
Pressure gradient source: uncorrected Ubar = 0.134393, pressure gradient = -371689
GAMGPCG:  Solving for p, Initial residual = 0.000121198, Final residual = 3.44423e-07, No Iterations 2
GAMGPCG:  Solving for p, Initial residual = 3.4442e-07, Final residual = 3.4442e-07, No Iterations 0
GAMGPCG:  Solving for p, Initial residual = 3.4442e-07, Final residual = 7.03434e-17, No Iterations 16
time step continuity errors : sum local = 1.51882e-17, global = 1.74859e-19, cumulative = 5.34511e-15
Pressure gradient source: uncorrected Ubar = 0.133462, pressure gradient = -103611
smoothSolver:  Solving for epsilon, Initial residual = 0.0400238, Final residual = 9.86327e-06, No Iterations 2
smoothSolver:  Solving for Rxx, Initial residual = 5.33314e-11, Final residual = 5.33314e-11, No Iterations 0
smoothSolver:  Solving for Rxy, Initial residual = 3.58698e-10, Final residual = 3.58698e-10, No Iterations 0
smoothSolver:  Solving for Rxz, Initial residual = 1.37008e-11, Final residual = 1.37008e-11, No Iterations 0
smoothSolver:  Solving for Ryy, Initial residual = 1.3757e-10, Final residual = 1.3757e-10, No Iterations 0
smoothSolver:  Solving for Ryz, Initial residual = 2.33657e-10, Final residual = 2.33657e-10, No Iterations 0
smoothSolver:  Solving for Rzz, Initial residual = 4.89448e-12, Final residual = 4.89448e-12, No Iterations 0
smoothSolver:  Solving for alpha, Initial residual = 1.30087e-06, Final residual = 1.30087e-06, No Iterations 0
ExecutionTime = 55.64 s  ClockTime = 56 s

Courant Number mean: 0.0451203 max: 0.699988
deltaT = 5.36207e-09
Time = 1.2875330489345

smoothSolver:  Solving for Ux, Initial residual = 0.000272291, Final residual = 3.56744e-06, No Iterations 1
smoothSolver:  Solving for Uy, Initial residual = 0.00382814, Final residual = 8.30144e-07, No Iterations 2
smoothSolver:  Solving for Uz, Initial residual = 0.000658315, Final residual = 9.39106e-06, No Iterations 1
Pressure gradient source: uncorrected Ubar = -0.234852, pressure gradient = 1.05992e+08
GAMGPCG:  Solving for p, Initial residual = 0.00504046, Final residual = 1.12573e-05, No Iterations 2
GAMGPCG:  Solving for p, Initial residual = 1.12937e-05, Final residual = 2.01903e-07, No Iterations 2
GAMGPCG:  Solving for p, Initial residual = 2.0197e-07, Final residual = 2.0197e-07, No Iterations 0
time step continuity errors : sum local = 2.06791e-11, global = -5.60849e-18, cumulative = 5.3395e-15
Pressure gradient source: uncorrected Ubar = 0.135283, pressure gradient = -617266
GAMGPCG:  Solving for p, Initial residual = 0.000125002, Final residual = 3.51481e-07, No Iterations 2
GAMGPCG:  Solving for p, Initial residual = 3.5148e-07, Final residual = 3.5148e-07, No Iterations 0
GAMGPCG:  Solving for p, Initial residual = 3.5148e-07, Final residual = 3.85139e-17, No Iterations 15
time step continuity errors : sum local = 1.64148e-17, global = -1.69646e-18, cumulative = 5.3378e-15
Pressure gradient source: uncorrected Ubar = 0.133456, pressure gradient = -91031.4
smoothSolver:  Solving for epsilon, Initial residual = 0.039624, Final residual = 9.73955e-06, No Iterations 2
smoothSolver:  Solving for Rxx, Initial residual = 5.35171e-11, Final residual = 5.35171e-11, No Iterations 0
smoothSolver:  Solving for Rxy, Initial residual = 3.59881e-10, Final residual = 3.59881e-10, No Iterations 0
smoothSolver:  Solving for Rxz, Initial residual = 1.37385e-11, Final residual = 1.37385e-11, No Iterations 0
smoothSolver:  Solving for Ryy, Initial residual = 1.37641e-10, Final residual = 1.37641e-10, No Iterations 0
smoothSolver:  Solving for Ryz, Initial residual = 2.34756e-10, Final residual = 2.34756e-10, No Iterations 0
smoothSolver:  Solving for Rzz, Initial residual = 4.90341e-12, Final residual = 4.90341e-12, No Iterations 0
smoothSolver:  Solving for alpha, Initial residual = 1.31282e-06, Final residual = 1.31282e-06, No Iterations 0
ExecutionTime = 55.72 s  ClockTime = 56 s

Courant Number mean: 0.0450722 max: 0.699989
deltaT = 5.36216e-09
Time = 1.2875330542966

smoothSolver:  Solving for Ux, Initial residual = 0.000270867, Final residual = 3.54357e-06, No Iterations 1
smoothSolver:  Solving for Uy, Initial residual = 0.00382986, Final residual = 8.29769e-07, No Iterations 2
smoothSolver:  Solving for Uz, Initial residual = 0.000657095, Final residual = 9.36027e-06, No Iterations 1
Pressure gradient source: uncorrected Ubar = -0.188913, pressure gradient = 9.27684e+07
GAMGPCG:  Solving for p, Initial residual = 0.00501415, Final residual = 1.53013e-05, No Iterations 2
GAMGPCG:  Solving for p, Initial residual = 1.53676e-05, Final residual = 3.13721e-07, No Iterations 2
GAMGPCG:  Solving for p, Initial residual = 3.13844e-07, Final residual = 3.13844e-07, No Iterations 0
time step continuity errors : sum local = 3.23189e-11, global = -1.4092e-18, cumulative = 5.33639e-15
Pressure gradient source: uncorrected Ubar = 0.134277, pressure gradient = -314694
GAMGPCG:  Solving for p, Initial residual = 0.000122939, Final residual = 2.62168e-07, No Iterations 2
GAMGPCG:  Solving for p, Initial residual = 2.62163e-07, Final residual = 2.62163e-07, No Iterations 0
GAMGPCG:  Solving for p, Initial residual = 2.62163e-07, Final residual = 9.09506e-17, No Iterations 13
time step continuity errors : sum local = 1.87319e-17, global = 4.15609e-18, cumulative = 5.34055e-15
Pressure gradient source: uncorrected Ubar = 0.133485, pressure gradient = -86599.4
smoothSolver:  Solving for epsilon, Initial residual = 0.0392306, Final residual = 9.6182e-06, No Iterations 2
smoothSolver:  Solving for Rxx, Initial residual = 5.37033e-11, Final residual = 5.37033e-11, No Iterations 0
smoothSolver:  Solving for Rxy, Initial residual = 3.61067e-10, Final residual = 3.61067e-10, No Iterations 0
smoothSolver:  Solving for Rxz, Initial residual = 1.37763e-11, Final residual = 1.37763e-11, No Iterations 0
smoothSolver:  Solving for Ryy, Initial residual = 1.37713e-10, Final residual = 1.37713e-10, No Iterations 0
smoothSolver:  Solving for Ryz, Initial residual = 2.35858e-10, Final residual = 2.35858e-10, No Iterations 0
smoothSolver:  Solving for Rzz, Initial residual = 4.91236e-12, Final residual = 4.91236e-12, No Iterations 0
smoothSolver:  Solving for alpha, Initial residual = 1.32477e-06, Final residual = 1.32477e-06, No Iterations 0
ExecutionTime = 55.79 s  ClockTime = 56 s

Courant Number mean: 0.0450243 max: 0.699989
deltaT = 5.36224e-09
Time = 1.2875330596589

smoothSolver:  Solving for Ux, Initial residual = 0.00026947, Final residual = 3.51966e-06, No Iterations 1
smoothSolver:  Solving for Uy, Initial residual = 0.00382741, Final residual = 8.28553e-07, No Iterations 2
smoothSolver:  Solving for Uz, Initial residual = 0.000655807, Final residual = 9.33038e-06, No Iterations 1
Pressure gradient source: uncorrected Ubar = -0.145787, pressure gradient = 8.03481e+07
GAMGPCG:  Solving for p, Initial residual = 0.00496822, Final residual = 1.22319e-05, No Iterations 2
GAMGPCG:  Solving for p, Initial residual = 1.22762e-05, Final residual = 2.60093e-07, No Iterations 2
GAMGPCG:  Solving for p, Initial residual = 2.60181e-07, Final residual = 2.60181e-07, No Iterations 0
time step continuity errors : sum local = 2.65926e-11, global = -2.18968e-18, cumulative = 5.33836e-15
Pressure gradient source: uncorrected Ubar = 0.133784, pressure gradient = -168505
GAMGPCG:  Solving for p, Initial residual = 0.000123626, Final residual = 2.8235e-07, No Iterations 2
GAMGPCG:  Solving for p, Initial residual = 2.82346e-07, Final residual = 2.82346e-07, No Iterations 0
GAMGPCG:  Solving for p, Initial residual = 2.82346e-07, Final residual = 3.98994e-17, No Iterations 15
time step continuity errors : sum local = 1.719e-17, global = 2.15619e-18, cumulative = 5.34052e-15
Pressure gradient source: uncorrected Ubar = 0.133444, pressure gradient = -70436.3
smoothSolver:  Solving for epsilon, Initial residual = 0.0388431, Final residual = 9.49891e-06, No Iterations 2
smoothSolver:  Solving for Rxx, Initial residual = 5.38899e-11, Final residual = 5.38899e-11, No Iterations 0
smoothSolver:  Solving for Rxy, Initial residual = 3.62256e-10, Final residual = 3.62256e-10, No Iterations 0
smoothSolver:  Solving for Rxz, Initial residual = 1.38142e-11, Final residual = 1.38142e-11, No Iterations 0
smoothSolver:  Solving for Ryy, Initial residual = 1.37784e-10, Final residual = 1.37784e-10, No Iterations 0
smoothSolver:  Solving for Ryz, Initial residual = 2.36963e-10, Final residual = 2.36963e-10, No Iterations 0
smoothSolver:  Solving for Rzz, Initial residual = 4.92133e-12, Final residual = 4.92133e-12, No Iterations 0
smoothSolver:  Solving for alpha, Initial residual = 1.33672e-06, Final residual = 1.33672e-06, No Iterations 0
ExecutionTime = 55.87 s  ClockTime = 56 s

Courant Number mean: 0.0449765 max: 0.699989
deltaT = 5.36233e-09
Time = 1.2875330650212

smoothSolver:  Solving for Ux, Initial residual = 0.000268076, Final residual = 3.49603e-06, No Iterations 1
smoothSolver:  Solving for Uy, Initial residual = 0.00382504, Final residual = 8.27725e-07, No Iterations 2
smoothSolver:  Solving for Uz, Initial residual = 0.000654527, Final residual = 9.3007e-06, No Iterations 1
Pressure gradient source: uncorrected Ubar = -0.10394, pressure gradient = 6.83092e+07
GAMGPCG:  Solving for p, Initial residual = 0.00444888, Final residual = 1.36204e-05, No Iterations 2
GAMGPCG:  Solving for p, Initial residual = 1.36693e-05, Final residual = 2.75988e-07, No Iterations 2
GAMGPCG:  Solving for p, Initial residual = 2.76098e-07, Final residual = 2.76098e-07, No Iterations 0
time step continuity errors : sum local = 2.80748e-11, global = 2.16393e-18, cumulative = 5.34268e-15
Pressure gradient source: uncorrected Ubar = 0.135042, pressure gradient = -514498
GAMGPCG:  Solving for p, Initial residual = 0.000120528, Final residual = 2.76364e-07, No Iterations 2
GAMGPCG:  Solving for p, Initial residual = 2.76359e-07, Final residual = 2.76359e-07, No Iterations 0
GAMGPCG:  Solving for p, Initial residual = 2.76359e-07, Final residual = 4.38796e-17, No Iterations 15
time step continuity errors : sum local = 1.69036e-17, global = 2.19355e-18, cumulative = 5.34487e-15
Pressure gradient source: uncorrected Ubar = 0.133455, pressure gradient = -57489.5
smoothSolver:  Solving for epsilon, Initial residual = 0.038461, Final residual = 9.38162e-06, No Iterations 2
smoothSolver:  Solving for Rxx, Initial residual = 5.40769e-11, Final residual = 5.40769e-11, No Iterations 0
smoothSolver:  Solving for Rxy, Initial residual = 3.63447e-10, Final residual = 3.63447e-10, No Iterations 0
smoothSolver:  Solving for Rxz, Initial residual = 1.38522e-11, Final residual = 1.38522e-11, No Iterations 0
smoothSolver:  Solving for Ryy, Initial residual = 1.37856e-10, Final residual = 1.37856e-10, No Iterations 0
smoothSolver:  Solving for Ryz, Initial residual = 2.3807e-10, Final residual = 2.3807e-10, No Iterations 0
smoothSolver:  Solving for Rzz, Initial residual = 4.93033e-12, Final residual = 4.93033e-12, No Iterations 0
smoothSolver:  Solving for alpha, Initial residual = 1.34867e-06, Final residual = 1.34867e-06, No Iterations 0
ExecutionTime = 55.94 s  ClockTime = 56 s

Courant Number mean: 0.0449289 max: 0.699989
deltaT = 5.36242e-09
Time = 1.2875330703836

smoothSolver:  Solving for Ux, Initial residual = 0.000266695, Final residual = 3.47276e-06, No Iterations 1
smoothSolver:  Solving for Uy, Initial residual = 0.00382395, Final residual = 8.26799e-07, No Iterations 2
smoothSolver:  Solving for Uz, Initial residual = 0.000653264, Final residual = 9.27136e-06, No Iterations 1
Pressure gradient source: uncorrected Ubar = -0.0619474, pressure gradient = 5.62262e+07
GAMGPCG:  Solving for p, Initial residual = 0.00466825, Final residual = 1.19587e-05, No Iterations 2
GAMGPCG:  Solving for p, Initial residual = 1.19996e-05, Final residual = 2.28823e-07, No Iterations 2
GAMGPCG:  Solving for p, Initial residual = 2.28905e-07, Final residual = 2.28905e-07, No Iterations 0
time step continuity errors : sum local = 2.29807e-11, global = -1.52839e-18, cumulative = 5.34335e-15
Pressure gradient source: uncorrected Ubar = 0.136036, pressure gradient = -787921
GAMGPCG:  Solving for p, Initial residual = 0.000119951, Final residual = 3.05877e-07, No Iterations 2
GAMGPCG:  Solving for p, Initial residual = 3.05872e-07, Final residual = 3.05872e-07, No Iterations 0
GAMGPCG:  Solving for p, Initial residual = 3.05872e-07, Final residual = 7.90157e-17, No Iterations 15
time step continuity errors : sum local = 1.68356e-17, global = -1.8757e-18, cumulative = 5.34147e-15
Pressure gradient source: uncorrected Ubar = 0.133444, pressure gradient = -41434.3
smoothSolver:  Solving for epsilon, Initial residual = 0.0380844, Final residual = 9.26624e-06, No Iterations 2
smoothSolver:  Solving for Rxx, Initial residual = 5.42645e-11, Final residual = 5.42645e-11, No Iterations 0
smoothSolver:  Solving for Rxy, Initial residual = 3.64641e-10, Final residual = 3.64641e-10, No Iterations 0
smoothSolver:  Solving for Rxz, Initial residual = 1.38902e-11, Final residual = 1.38902e-11, No Iterations 0
smoothSolver:  Solving for Ryy, Initial residual = 1.37928e-10, Final residual = 1.37928e-10, No Iterations 0
smoothSolver:  Solving for Ryz, Initial residual = 2.39179e-10, Final residual = 2.39179e-10, No Iterations 0
smoothSolver:  Solving for Rzz, Initial residual = 4.93934e-12, Final residual = 4.93934e-12, No Iterations 0
smoothSolver:  Solving for alpha, Initial residual = 1.36062e-06, Final residual = 1.36062e-06, No Iterations 0
ExecutionTime = 56.03 s  ClockTime = 57 s

Courant Number mean: 0.0448814 max: 0.699989
deltaT = 5.3625e-09
Time = 1.2875330757461

smoothSolver:  Solving for Ux, Initial residual = 0.00026533, Final residual = 3.45001e-06, No Iterations 1
smoothSolver:  Solving for Uy, Initial residual = 0.00382349, Final residual = 8.26101e-07, No Iterations 2
smoothSolver:  Solving for Uz, Initial residual = 0.000652011, Final residual = 9.24213e-06, No Iterations 1
Pressure gradient source: uncorrected Ubar = -0.0198892, pressure gradient = 4.41286e+07
GAMGPCG:  Solving for p, Initial residual = 0.00517884, Final residual = 1.26823e-05, No Iterations 2
GAMGPCG:  Solving for p, Initial residual = 1.2722e-05, Final residual = 2.36926e-07, No Iterations 2
GAMGPCG:  Solving for p, Initial residual = 2.37011e-07, Final residual = 2.37011e-07, No Iterations 0
time step continuity errors : sum local = 2.3578e-11, global = 3.34476e-18, cumulative = 5.34482e-15
Pressure gradient source: uncorrected Ubar = 0.137959, pressure gradient = -1.32553e+06
GAMGPCG:  Solving for p, Initial residual = 0.000123505, Final residual = 3.02908e-07, No Iterations 2
GAMGPCG:  Solving for p, Initial residual = 3.02903e-07, Final residual = 3.02903e-07, No Iterations 0
GAMGPCG:  Solving for p, Initial residual = 3.02903e-07, Final residual = 5.67895e-17, No Iterations 15
time step continuity errors : sum local = 1.57746e-17, global = -6.36512e-19, cumulative = 5.34418e-15
Pressure gradient source: uncorrected Ubar = 0.133451, pressure gradient = -27454.7
smoothSolver:  Solving for epsilon, Initial residual = 0.037713, Final residual = 9.15272e-06, No Iterations 2
smoothSolver:  Solving for Rxx, Initial residual = 5.44524e-11, Final residual = 5.44524e-11, No Iterations 0
smoothSolver:  Solving for Rxy, Initial residual = 3.65837e-10, Final residual = 3.65837e-10, No Iterations 0
smoothSolver:  Solving for Rxz, Initial residual = 1.39284e-11, Final residual = 1.39284e-11, No Iterations 0
smoothSolver:  Solving for Ryy, Initial residual = 1.38e-10, Final residual = 1.38e-10, No Iterations 0
smoothSolver:  Solving for Ryz, Initial residual = 2.40292e-10, Final residual = 2.40292e-10, No Iterations 0
smoothSolver:  Solving for Rzz, Initial residual = 4.94838e-12, Final residual = 4.94838e-12, No Iterations 0
smoothSolver:  Solving for alpha, Initial residual = 1.37257e-06, Final residual = 1.37257e-06, No Iterations 0
ExecutionTime = 56.1 s  ClockTime = 57 s

Courant Number mean: 0.0448339 max: 0.699989
deltaT = 5.36258e-09
Time = 1.2875330811087

smoothSolver:  Solving for Ux, Initial residual = 0.000263978, Final residual = 3.42783e-06, No Iterations 1
smoothSolver:  Solving for Uy, Initial residual = 0.00382203, Final residual = 8.25273e-07, No Iterations 2
smoothSolver:  Solving for Uz, Initial residual = 0.000650814, Final residual = 9.21415e-06, No Iterations 1
Pressure gradient source: uncorrected Ubar = 0.0228471, pressure gradient = 3.18347e+07
GAMGPCG:  Solving for p, Initial residual = 0.00516728, Final residual = 1.11547e-05, No Iterations 2
GAMGPCG:  Solving for p, Initial residual = 1.11955e-05, Final residual = 2.16245e-07, No Iterations 2
GAMGPCG:  Solving for p, Initial residual = 2.16313e-07, Final residual = 2.16313e-07, No Iterations 0
time step continuity errors : sum local = 2.14314e-11, global = -2.25255e-18, cumulative = 5.34193e-15
Pressure gradient source: uncorrected Ubar = 0.137535, pressure gradient = -1.18931e+06
GAMGPCG:  Solving for p, Initial residual = 0.000123901, Final residual = 3.30498e-07, No Iterations 2
GAMGPCG:  Solving for p, Initial residual = 3.30491e-07, Final residual = 3.30491e-07, No Iterations 0
GAMGPCG:  Solving for p, Initial residual = 3.30491e-07, Final residual = 5.1309e-17, No Iterations 16
time step continuity errors : sum local = 2.05972e-17, global = -4.96393e-18, cumulative = 5.33696e-15
Pressure gradient source: uncorrected Ubar = 0.133448, pressure gradient = -12399.5
smoothSolver:  Solving for epsilon, Initial residual = 0.0373467, Final residual = 9.04106e-06, No Iterations 2
smoothSolver:  Solving for Rxx, Initial residual = 5.46408e-11, Final residual = 5.46408e-11, No Iterations 0
smoothSolver:  Solving for Rxy, Initial residual = 3.67036e-10, Final residual = 3.67036e-10, No Iterations 0
smoothSolver:  Solving for Rxz, Initial residual = 1.39666e-11, Final residual = 1.39666e-11, No Iterations 0
smoothSolver:  Solving for Ryy, Initial residual = 1.38072e-10, Final residual = 1.38072e-10, No Iterations 0
smoothSolver:  Solving for Ryz, Initial residual = 2.41407e-10, Final residual = 2.41407e-10, No Iterations 0
smoothSolver:  Solving for Rzz, Initial residual = 4.95745e-12, Final residual = 4.95745e-12, No Iterations 0
smoothSolver:  Solving for alpha, Initial residual = 1.38453e-06, Final residual = 1.38453e-06, No Iterations 0
ExecutionTime = 56.18 s  ClockTime = 57 s

Courant Number mean: 0.0447868 max: 0.699989
deltaT = 5.36267e-09
Time = 1.2875330864714

smoothSolver:  Solving for Ux, Initial residual = 0.000262626, Final residual = 3.40595e-06, No Iterations 1
smoothSolver:  Solving for Uy, Initial residual = 0.00382093, Final residual = 8.24614e-07, No Iterations 2
smoothSolver:  Solving for Uz, Initial residual = 0.000649654, Final residual = 9.1865e-06, No Iterations 1
Pressure gradient source: uncorrected Ubar = 0.0640739, pressure gradient = 1.99777e+07
